50-06-6
  -INDIGO-01081615412D

 29 30  0  0  0  0  0  0  0  0999 V2000
    2.4001    1.3856    0.0000 O   0  0  0  0  0  0  0  0  0  0  0  0
    0.8000    1.3856    0.0000 C   0  0  0  0  0  0  0  0  0  0  0  0
   -0.0000    2.7713    0.0000 N   0  0  0  0  0  0  0  0  0  0  0  0
    0.8000    4.1569    0.0000 H   0  0  0  0  0  0  0  0  0  0  0  0
   -1.6001    2.7713    0.0000 C   0  0  0  0  0  0  0  0  0  0  0  0
   -2.4000    4.1569    0.0000 O   0  0  0  0  0  0  0  0  0  0  0  0
   -2.4000    1.3856    0.0000 N   0  0  0  0  0  0  0  0  0  0  0  0
   -4.0000    1.3856    0.0000 H   0  0  0  0  0  0  0  0  0  0  0  0
   -1.6001   -0.0000    0.0000 C   0  0  0  0  0  0  0  0  0  0  0  0
   -2.1856   -0.5856    0.0000 O   0  0  0  0  0  0  0  0  0  0  0  0
   -0.0000   -0.0000    0.0000 C   0  0  0  0  0  0  0  0  0  0  0  0
   -0.8000   -1.3857    0.0000 C   0  0  0  0  0  0  0  0  0  0  0  0
   -1.6001   -2.7713    0.0000 C   0  0  0  0  0  0  0  0  0  0  0  0
   -2.4000   -4.1569    0.0000 H   0  0  0  0  0  0  0  0  0  0  0  0
   -3.2001   -2.7713    0.0000 H   0  0  0  0  0  0  0  0  0  0  0  0
   -0.8000   -4.1569    0.0000 H   0  0  0  0  0  0  0  0  0  0  0  0
   -1.6282   -1.3857    0.0000 H   0  0  0  0  0  0  0  0  0  0  0  0
    0.5857   -2.1856    0.0000 H   0  0  0  0  0  0  0  0  0  0  0  0
    1.5036   -0.5473    0.0000 C   0  0  0  0  0  0  0  0  0  0  0  0
    1.7814   -2.1229    0.0000 C   0  0  0  0  0  0  0  0  0  0  0  0
    0.5557   -3.1514    0.0000 H   0  0  0  0  0  0  0  0  0  0  0  0
    3.2848   -2.6702    0.0000 C   0  0  0  0  0  0  0  0  0  0  0  0
    3.5627   -4.2458    0.0000 H   0  0  0  0  0  0  0  0  0  0  0  0
    4.5106   -1.6417    0.0000 C   0  0  0  0  0  0  0  0  0  0  0  0
    6.0140   -2.1890    0.0000 H   0  0  0  0  0  0  0  0  0  0  0  0
    4.2326   -0.0659    0.0000 C   0  0  0  0  0  0  0  0  0  0  0  0
    5.4583    0.9625    0.0000 H   0  0  0  0  0  0  0  0  0  0  0  0
    2.7292    0.4812    0.0000 C   0  0  0  0  0  0  0  0  0  0  0  0
    3.2764    1.9848    0.0000 H   0  0  0  0  0  0  0  0  0  0  0  0
  1  2  2  0  0  0  0
  2  3  1  0  0  0  0
  3  4  1  0  0  0  0
  3  5  1  0  0  0  0
  5  6  2  0  0  0  0
  5  7  1  0  0  0  0
  7  8  1  0  0  0  0
  7  9  1  0  0  0  0
  9 10  2  0  0  0  0
  9 11  1  0  0  0  0
 11  2  1  0  0  0  0
 11 12  1  0  0  0  0
 12 13  1  0  0  0  0
 13 14  1  0  0  0  0
 13 15  1  0  0  0  0
 13 16  1  0  0  0  0
 12 17  1  0  0  0  0
 12 18  1  0  0  0  0
 11 19  1  0  0  0  0
 19 20  4  0  0  0  0
 20 21  1  0  0  0  0
 20 22  4  0  0  0  0
 22 23  1  0  0  0  0
 22 24  4  0  0  0  0
 24 25  1  0  0  0  0
 24 26  4  0  0  0  0
 26 27  1  0  0  0  0
 26 28  4  0  0  0  0
 28 19  4  0  0  0  0
 28 29  1  0  0  0  0
M  END
> <CAS>
50-06-6

> <NAME>
PHENOBARBITAL

> <preferred_name>
Phenobarbital

> <iupac>
5-ethyl-5-phenylpyrimidine-2,4,6(1H,3H,5H)-trione

> <SMILES>
CCC1(c2ccccc2)C(=O)NC(=O)NC1=O

> <Canonical_QSARr>
CCC1(c2ccccc2)C(=O)NC(=O)NC1=O

> <InChI_Code_QSARr>
InChI=1S/C12H12N2O3/c1-2-12(8-6-4-3-5-7-8)9(15)13-11(17)14-10(12)16/h3-7H,2H2,1H3,(H2,13,14,15,16,17)

> <InChI Key_QSARr>
DDBREPKUVSBGFI-UHFFFAOYSA-N

> <Salt_Solvent>
?

> <WS Temperature>
25

> <WS Reference>
YALKOWSKY,SH & DANNENFELSER,RM (1992)

> <dsstox_substance_id>
DTXSID5021122

> <LogMolar>
-2.3206

$$$$
50-21-5
  -INDIGO-01081615412D

 12 11  0  0  0  0  0  0  0  0999 V2000
   -1.6000    0.0000    0.0000 C   0  0  0  0  0  0  0  0  0  0  0  0
   -0.0000    0.0000    0.0000 C   0  0  0  0  0  0  0  0  0  0  0  0
   -0.0000    1.6000    0.0000 O   0  0  0  0  0  0  0  0  0  0  0  0
   -1.3857    2.4000    0.0000 H   0  0  0  0  0  0  0  0  0  0  0  0
    1.6000    0.0000    0.0000 C   0  0  0  0  0  0  0  0  0  0  0  0
    3.2000    0.0000    0.0000 H   0  0  0  0  0  0  0  0  0  0  0  0
    2.4000   -1.3856    0.0000 H   0  0  0  0  0  0  0  0  0  0  0  0
    2.4000    1.3856    0.0000 H   0  0  0  0  0  0  0  0  0  0  0  0
   -0.0000   -1.6000    0.0000 H   0  0  0  0  0  0  0  0  0  0  0  0
   -2.4000    1.3856    0.0000 O   0  0  0  0  0  0  0  0  0  0  0  0
   -2.4000   -1.3856    0.0000 O   0  0  0  0  0  0  0  0  0  0  0  0
   -4.0000   -1.3856    0.0000 H   0  0  0  0  0  0  0  0  0  0  0  0
  1  2  1  0  0  0  0
  2  3  1  0  0  0  0
  3  4  1  0  0  0  0
  2  5  1  0  0  0  0
  5  6  1  0  0  0  0
  5  7  1  0  0  0  0
  5  8  1  0  0  0  0
  2  9  1  0  0  0  0
  1 10  2  0  0  0  0
  1 11  1  0  0  0  0
 11 12  1  0  0  0  0
M  END
> <CAS>
50-21-5

> <NAME>
LACTIC ACID

> <preferred_name>
Lactic acid

> <iupac>
2-hydroxypropanoic acid

> <SMILES>
CC(O)C(O)=O

> <Canonical_QSARr>
CC(O)C(O)=O

> <InChI_Code_QSARr>
InChI=1S/C3H6O3/c1-2(4)3(5)6/h2,4H,1H3,(H,5,6)

> <InChI Key_QSARr>
JVTAAEKCZFNVCJ-UHFFFAOYSA-N

> <Salt_Solvent>
?

> <WS Temperature>


> <WS Reference>
MERCK INDEX (2001)

> <dsstox_substance_id>
DTXSID7023192

> <LogMolar>
1.0454

$$$$
50-28-2, 57-91-0
  -INDIGO-01081615412D

 44 47  0  0  0  0  0  0  0  0999 V2000
   -0.0000    0.0000    0.0000 C   0  0  0  0  0  0  0  0  0  0  0  0
    0.9406   -1.2945    0.0000 C   0  0  0  0  0  0  0  0  0  0  0  0
    2.0913   -2.4059    0.0000 H   0  0  0  0  0  0  0  0  0  0  0  0
    1.1076   -2.8856    0.0000 H   0  0  0  0  0  0  0  0  0  0  0  0
    1.7323   -1.2586    0.0000 H   0  0  0  0  0  0  0  0  0  0  0  0
    1.5651    0.3327    0.0000 C   0  0  0  0  0  0  0  0  0  0  0  0
    3.1650    0.3327    0.0000 O   0  0  0  0  0  0  0  0  0  0  0  0
    3.9650   -1.0529    0.0000 H   0  0  0  0  0  0  0  0  0  0  0  0
    2.0486   -0.2953    0.0000 H   0  0  0  0  0  0  0  0  0  0  0  0
    1.7323    1.9239    0.0000 C   0  0  0  0  0  0  0  0  0  0  0  0
    3.2974    1.5913    0.0000 H   0  0  0  0  0  0  0  0  0  0  0  0
    2.2268    3.4456    0.0000 H   0  0  0  0  0  0  0  0  0  0  0  0
    0.2707    2.5746    0.0000 C   0  0  0  0  0  0  0  0  0  0  0  0
    1.0705    3.9603    0.0000 H   0  0  0  0  0  0  0  0  0  0  0  0
   -0.3801    4.0364    0.0000 H   0  0  0  0  0  0  0  0  0  0  0  0
   -0.8001    1.3856    0.0000 C   0  0  0  0  0  0  0  0  0  0  0  0
   -0.6328    2.9769    0.0000 H   0  0  0  0  0  0  0  0  0  0  0  0
   -2.4000    1.3856    0.0000 C   0  0  0  0  0  0  0  0  0  0  0  0
   -1.5999    2.7712    0.0000 H   0  0  0  0  0  0  0  0  0  0  0  0
   -3.2001    0.0000    0.0000 C   0  0  0  0  0  0  0  0  0  0  0  0
   -4.8000    0.0000    0.0000 C   0  0  0  0  0  0  0  0  0  0  0  0
   -5.6000   -1.3856    0.0000 C   0  0  0  0  0  0  0  0  0  0  0  0
   -4.8000   -2.7713    0.0000 H   0  0  0  0  0  0  0  0  0  0  0  0
   -7.2000   -1.3856    0.0000 C   0  0  0  0  0  0  0  0  0  0  0  0
   -8.0000   -2.7713    0.0000 H   0  0  0  0  0  0  0  0  0  0  0  0
   -8.0000    0.0000    0.0000 C   0  0  0  0  0  0  0  0  0  0  0  0
   -9.5999    0.0000    0.0000 O   0  0  0  0  0  0  0  0  0  0  0  0
  -10.4000   -1.3856    0.0000 H   0  0  0  0  0  0  0  0  0  0  0  0
   -7.2000    1.3856    0.0000 C   0  0  0  0  0  0  0  0  0  0  0  0
   -8.0000    2.7712    0.0000 H   0  0  0  0  0  0  0  0  0  0  0  0
   -5.6000    1.3856    0.0000 C   0  0  0  0  0  0  0  0  0  0  0  0
   -4.8000    2.7712    0.0000 C   0  0  0  0  0  0  0  0  0  0  0  0
   -3.2001    2.7712    0.0000 C   0  0  0  0  0  0  0  0  0  0  0  0
   -1.9743    3.7998    0.0000 H   0  0  0  0  0  0  0  0  0  0  0  0
   -3.4778    4.3470    0.0000 H   0  0  0  0  0  0  0  0  0  0  0  0
   -4.5222    4.3470    0.0000 H   0  0  0  0  0  0  0  0  0  0  0  0
   -6.3034    3.3186    0.0000 H   0  0  0  0  0  0  0  0  0  0  0  0
   -3.9999   -1.3856    0.0000 H   0  0  0  0  0  0  0  0  0  0  0  0
   -2.4000   -1.3856    0.0000 C   0  0  0  0  0  0  0  0  0  0  0  0
   -3.6257   -2.4141    0.0000 H   0  0  0  0  0  0  0  0  0  0  0  0
   -2.1223   -2.9613    0.0000 H   0  0  0  0  0  0  0  0  0  0  0  0
   -0.8001   -1.3856    0.0000 C   0  0  0  0  0  0  0  0  0  0  0  0
   -1.0778   -2.9613    0.0000 H   0  0  0  0  0  0  0  0  0  0  0  0
    0.5857   -2.1856    0.0000 H   0  0  0  0  0  0  0  0  0  0  0  0
  1  2  1  0  0  0  0
  2  3  1  0  0  0  0
  2  4  1  0  0  0  0
  2  5  1  0  0  0  0
  1  6  1  0  0  0  0
  6  7  1  0  0  0  0
  7  8  1  0  0  0  0
  6  9  1  0  0  0  0
  6 10  1  0  0  0  0
 10 11  1  0  0  0  0
 10 12  1  0  0  0  0
 10 13  1  0  0  0  0
 13 14  1  0  0  0  0
 13 15  1  0  0  0  0
 13 16  1  0  0  0  0
 16  1  1  0  0  0  0
 16 17  1  0  0  0  0
 16 18  1  0  0  0  0
 18 19  1  0  0  0  0
 18 20  1  0  0  0  0
 20 21  1  0  0  0  0
 21 22  4  0  0  0  0
 22 23  1  0  0  0  0
 22 24  4  0  0  0  0
 24 25  1  0  0  0  0
 24 26  4  0  0  0  0
 26 27  1  0  0  0  0
 27 28  1  0  0  0  0
 26 29  4  0  0  0  0
 29 30  1  0  0  0  0
 29 31  4  0  0  0  0
 31 21  4  0  0  0  0
 31 32  1  0  0  0  0
 32 33  1  0  0  0  0
 33 18  1  0  0  0  0
 33 34  1  0  0  0  0
 33 35  1  0  0  0  0
 32 36  1  0  0  0  0
 32 37  1  0  0  0  0
 20 38  1  0  0  0  0
 20 39  1  0  0  0  0
 39 40  1  0  0  0  0
 39 41  1  0  0  0  0
 39 42  1  0  0  0  0
 42  1  1  0  0  0  0
 42 43  1  0  0  0  0
 42 44  1  0  0  0  0
M  END
> <CAS>
50-28-2, 57-91-0

> <NAME>
ESTRADIOL, a-Estradiol

> <preferred_name>
17beta-Estradiol

> <iupac>
(17beta)-estra-1(10),2,4-triene-3,17-diol

> <SMILES>
C[C@]12CC[C@H]3[C@@H](CCc4cc(O)ccc43)[C@@H]1CC[C@@H]2O

> <Canonical_QSARr>
CC12CCC3C(CCc4cc(O)ccc43)C1CCC2O

> <InChI_Code_QSARr>
InChI=1S/C18H24O2/c1-18-9-8-14-13-5-3-12(19)10-11(13)2-4-15(14)16(18)6-7-17(18)20/h3,5,10,14-17,19-20H,2,4,6-9H2,1H3

> <InChI Key_QSARr>
VOXZDWNPVJITMN-UHFFFAOYSA-N

> <Salt_Solvent>
?

> <WS Temperature>
26

> <WS Reference>
YALKOWSKY,SH & DANNENFELSER,RM (1992)

> <dsstox_substance_id>
DTXSID0020573

> <LogMolar>
-4.8615

$$$$
50-32-8
  -INDIGO-01081615412D

 32 36  0  0  0  0  0  0  0  0999 V2000
    0.0000   -2.7712    0.0000 C   0  0  0  0  0  0  0  0  0  0  0  0
   -0.8000   -1.3856    0.0000 C   0  0  0  0  0  0  0  0  0  0  0  0
   -2.4000   -1.3856    0.0000 C   0  0  0  0  0  0  0  0  0  0  0  0
   -3.2000   -2.7712    0.0000 C   0  0  0  0  0  0  0  0  0  0  0  0
   -2.4000   -4.1569    0.0000 H   0  0  0  0  0  0  0  0  0  0  0  0
   -4.8000   -2.7712    0.0000 C   0  0  0  0  0  0  0  0  0  0  0  0
   -5.6000   -4.1569    0.0000 H   0  0  0  0  0  0  0  0  0  0  0  0
   -5.6000   -1.3856    0.0000 C   0  0  0  0  0  0  0  0  0  0  0  0
   -7.2000   -1.3856    0.0000 H   0  0  0  0  0  0  0  0  0  0  0  0
   -4.8000   -0.0001    0.0000 C   0  0  0  0  0  0  0  0  0  0  0  0
   -5.6000    1.3856    0.0000 H   0  0  0  0  0  0  0  0  0  0  0  0
   -3.2000   -0.0001    0.0000 C   0  0  0  0  0  0  0  0  0  0  0  0
   -2.4000    1.3856    0.0000 C   0  0  0  0  0  0  0  0  0  0  0  0
   -3.2000    2.7712    0.0000 H   0  0  0  0  0  0  0  0  0  0  0  0
   -0.8000    1.3856    0.0000 C   0  0  0  0  0  0  0  0  0  0  0  0
    0.0000   -0.0001    0.0000 C   0  0  0  0  0  0  0  0  0  0  0  0
    1.6000   -0.0001    0.0000 C   0  0  0  0  0  0  0  0  0  0  0  0
    2.4000    1.3856    0.0000 C   0  0  0  0  0  0  0  0  0  0  0  0
    1.6000    2.7712    0.0000 C   0  0  0  0  0  0  0  0  0  0  0  0
    0.0000    2.7712    0.0000 C   0  0  0  0  0  0  0  0  0  0  0  0
   -0.8000    4.1569    0.0000 H   0  0  0  0  0  0  0  0  0  0  0  0
    2.4000    4.1569    0.0000 H   0  0  0  0  0  0  0  0  0  0  0  0
    4.0000    1.3856    0.0000 C   0  0  0  0  0  0  0  0  0  0  0  0
    4.8000   -0.0001    0.0000 C   0  0  0  0  0  0  0  0  0  0  0  0
    4.0000   -1.3856    0.0000 C   0  0  0  0  0  0  0  0  0  0  0  0
    4.8000   -2.7713    0.0000 H   0  0  0  0  0  0  0  0  0  0  0  0
    2.4000   -1.3856    0.0000 C   0  0  0  0  0  0  0  0  0  0  0  0
    1.6000   -2.7712    0.0000 C   0  0  0  0  0  0  0  0  0  0  0  0
    2.4000   -4.1569    0.0000 H   0  0  0  0  0  0  0  0  0  0  0  0
    6.4000   -0.0001    0.0000 H   0  0  0  0  0  0  0  0  0  0  0  0
    4.8000    2.7712    0.0000 H   0  0  0  0  0  0  0  0  0  0  0  0
   -0.8000   -4.1569    0.0000 H   0  0  0  0  0  0  0  0  0  0  0  0
  1  2  4  0  0  0  0
  2  3  4  0  0  0  0
  3  4  4  0  0  0  0
  4  5  1  0  0  0  0
  4  6  4  0  0  0  0
  6  7  1  0  0  0  0
  6  8  4  0  0  0  0
  8  9  1  0  0  0  0
  8 10  4  0  0  0  0
 10 11  1  0  0  0  0
 10 12  4  0  0  0  0
 12  3  4  0  0  0  0
 12 13  4  0  0  0  0
 13 14  1  0  0  0  0
 13 15  4  0  0  0  0
 15 16  4  0  0  0  0
 16  2  4  0  0  0  0
 16 17  4  0  0  0  0
 17 18  4  0  0  0  0
 18 19  4  0  0  0  0
 19 20  4  0  0  0  0
 20 15  4  0  0  0  0
 20 21  1  0  0  0  0
 19 22  1  0  0  0  0
 18 23  4  0  0  0  0
 23 24  4  0  0  0  0
 24 25  4  0  0  0  0
 25 26  1  0  0  0  0
 25 27  4  0  0  0  0
 27 17  4  0  0  0  0
 27 28  4  0  0  0  0
 28  1  4  0  0  0  0
 28 29  1  0  0  0  0
 24 30  1  0  0  0  0
 23 31  1  0  0  0  0
  1 32  1  0  0  0  0
M  END
> <CAS>
50-32-8

> <NAME>
BENZO(A)PYRENE

> <preferred_name>
Benzo(a)pyrene

> <iupac>
benzo[pqr]tetraphene

> <SMILES>
c1c2ccccc2c2ccc3cccc4ccc1c2c34

> <Canonical_QSARr>
c1c2ccccc2c2ccc3cccc4ccc1c2c34

> <InChI_Code_QSARr>
InChI=1S/C20H12/c1-2-7-17-15(4-1)12-16-9-8-13-5-3-6-14-10-11-18(17)20(16)19(13)14/h1-12H

> <InChI Key_QSARr>
FMMWHPNWAFZXNH-UHFFFAOYSA-N

> <Salt_Solvent>
?

> <WS Temperature>
25

> <WS Reference>
MAY,WE ET AL. (1983)

> <dsstox_substance_id>
DTXSID2020139

> <LogMolar>
-8.1924

$$$$
50-44-2
  -INDIGO-01081615412D

 14 15  0  0  0  0  0  0  0  0999 V2000
    2.4000    1.3856    0.0000 S   0  0  0  0  0  0  0  0  0  0  0  0
    1.6000   -0.0000    0.0000 C   0  0  0  0  0  0  0  0  0  0  0  0
    0.0000   -0.0000    0.0000 C   0  0  0  0  0  0  0  0  0  0  0  0
   -1.0706    1.1890    0.0000 N   0  0  0  1  0  0  0  0  0  0  0  0
   -2.5322    0.5383    0.0000 C   0  0  0  0  0  0  0  0  0  0  0  0
   -2.3650   -1.0530    0.0000 N   0  0  0  1  0  0  0  0  0  0  0  0
   -3.5540   -2.1236    0.0000 H   0  0  0  0  0  0  0  0  0  0  0  0
   -0.8000   -1.3857    0.0000 C   0  0  0  0  0  0  0  0  0  0  0  0
    0.0000   -2.7713    0.0000 N   0  0  0  0  0  0  0  0  0  0  0  0
    1.6000   -2.7713    0.0000 C   0  0  0  0  0  0  0  0  0  0  0  0
    2.4000   -4.1569    0.0000 H   0  0  0  0  0  0  0  0  0  0  0  0
    2.4000   -1.3857    0.0000 N   0  0  0  0  0  0  0  0  0  0  0  0
    4.0000   -1.3856    0.0000 H   0  0  0  0  0  0  0  0  0  0  0  0
   -3.9179    1.3383    0.0000 H   0  0  0  0  0  0  0  0  0  0  0  0
  1  2  2  0  0  0  0
  2  3  1  0  0  0  0
  3  4  4  0  0  0  0
  4  5  4  0  0  0  0
  5  6  4  0  0  0  0
  6  7  1  0  0  0  0
  6  8  4  0  0  0  0
  8  3  4  0  0  0  0
  8  9  1  0  0  0  0
  9 10  2  0  0  0  0
 10 11  1  0  0  0  0
 10 12  1  0  0  0  0
 12  2  1  0  0  0  0
 12 13  1  0  0  0  0
  5 14  1  0  0  0  0
M  END
> <CAS>
50-44-2

> <NAME>
6-PURINETHIOL HYDRATE

> <preferred_name>
6-Mercaptopurine

> <iupac>
1,9-dihydro-6H-purine-6-thione

> <SMILES>
S=C1NC=Nc2[nH]c[n]c21

> <Canonical_QSARr>
S=C1NC=Nc2[nH]c[n]c21

> <InChI_Code_QSARr>
InChI=1S/C5H4N4S/c10-5-3-4(7-1-6-3)8-2-9-5/h1-2H,(H2,6,7,8,9,10)

> <InChI Key_QSARr>
GLVAUDGFNGKCSF-UHFFFAOYSA-N

> <Salt_Solvent>
?

> <WS Temperature>


> <WS Reference>
YALKOWSKY,SH & DANNENFELSER,RM (1992)

> <dsstox_substance_id>
DTXSID0020810

> <LogMolar>
-0.3468

$$$$
50-53-3
  -INDIGO-01081615412D

 40 42  0  0  0  0  0  0  0  0999 V2000
   -2.4000    4.1569    0.0000 C   0  0  0  0  0  0  0  0  0  0  0  0
   -0.8000    4.1569    0.0000 C   0  0  0  0  0  0  0  0  0  0  0  0
    0.0000    5.5426    0.0000 H   0  0  0  0  0  0  0  0  0  0  0  0
    0.0000    2.7712    0.0000 C   0  0  0  0  0  0  0  0  0  0  0  0
    1.6000    2.7712    0.0000 H   0  0  0  0  0  0  0  0  0  0  0  0
   -0.8000    1.3856    0.0000 C   0  0  0  0  0  0  0  0  0  0  0  0
    0.0000   -0.0001    0.0000 N   0  0  0  0  0  0  0  0  0  0  0  0
   -0.8000   -1.3856    0.0000 C   0  0  0  0  0  0  0  0  0  0  0  0
    0.0000   -2.7712    0.0000 C   0  0  0  0  0  0  0  0  0  0  0  0
    1.6000   -2.7712    0.0000 H   0  0  0  0  0  0  0  0  0  0  0  0
   -0.8000   -4.1569    0.0000 C   0  0  0  0  0  0  0  0  0  0  0  0
    0.0000   -5.5426    0.0000 Cl  0  0  0  0  0  0  0  0  0  0  0  0
   -2.4000   -4.1569    0.0000 C   0  0  0  0  0  0  0  0  0  0  0  0
   -3.2000   -5.5426    0.0000 H   0  0  0  0  0  0  0  0  0  0  0  0
   -3.2000   -2.7712    0.0000 C   0  0  0  0  0  0  0  0  0  0  0  0
   -4.8000   -2.7712    0.0000 H   0  0  0  0  0  0  0  0  0  0  0  0
   -2.4000   -1.3856    0.0000 C   0  0  0  0  0  0  0  0  0  0  0  0
   -3.2000   -0.0001    0.0000 S   0  0  0  0  0  0  0  0  0  0  0  0
   -2.4000    1.3856    0.0000 C   0  0  0  0  0  0  0  0  0  0  0  0
   -3.2000    2.7712    0.0000 C   0  0  0  0  0  0  0  0  0  0  0  0
   -4.8000    2.7712    0.0000 H   0  0  0  0  0  0  0  0  0  0  0  0
    1.6000   -0.0001    0.0000 C   0  0  0  0  0  0  0  0  0  0  0  0
    3.2000   -0.0001    0.0000 C   0  0  0  0  0  0  0  0  0  0  0  0
    4.8000   -0.0001    0.0000 C   0  0  0  0  0  0  0  0  0  0  0  0
    6.4000   -0.0001    0.0000 N   0  0  0  0  0  0  0  0  0  0  0  0
    7.2000    1.3856    0.0000 C   0  0  0  0  0  0  0  0  0  0  0  0
    8.0000    2.7712    0.0000 H   0  0  0  0  0  0  0  0  0  0  0  0
    8.8000    1.3856    0.0000 H   0  0  0  0  0  0  0  0  0  0  0  0
    6.4000    2.7712    0.0000 H   0  0  0  0  0  0  0  0  0  0  0  0
    7.2000   -1.3856    0.0000 C   0  0  0  0  0  0  0  0  0  0  0  0
    8.0000   -2.7712    0.0000 H   0  0  0  0  0  0  0  0  0  0  0  0
    8.8000   -1.3856    0.0000 H   0  0  0  0  0  0  0  0  0  0  0  0
    6.4000   -2.7712    0.0000 H   0  0  0  0  0  0  0  0  0  0  0  0
    4.8000    1.6001    0.0000 H   0  0  0  0  0  0  0  0  0  0  0  0
    4.8000   -1.6001    0.0000 H   0  0  0  0  0  0  0  0  0  0  0  0
    3.2000    1.6001    0.0000 H   0  0  0  0  0  0  0  0  0  0  0  0
    3.2000   -1.6001    0.0000 H   0  0  0  0  0  0  0  0  0  0  0  0
    1.6000    1.6001    0.0000 H   0  0  0  0  0  0  0  0  0  0  0  0
    1.6000   -1.6001    0.0000 H   0  0  0  0  0  0  0  0  0  0  0  0
   -3.2000    5.5426    0.0000 H   0  0  0  0  0  0  0  0  0  0  0  0
  1  2  4  0  0  0  0
  2  3  1  0  0  0  0
  2  4  4  0  0  0  0
  4  5  1  0  0  0  0
  4  6  4  0  0  0  0
  6  7  1  0  0  0  0
  7  8  1  0  0  0  0
  8  9  4  0  0  0  0
  9 10  1  0  0  0  0
  9 11  4  0  0  0  0
 11 12  1  0  0  0  0
 11 13  4  0  0  0  0
 13 14  1  0  0  0  0
 13 15  4  0  0  0  0
 15 16  1  0  0  0  0
 15 17  4  0  0  0  0
 17  8  4  0  0  0  0
 17 18  1  0  0  0  0
 18 19  1  0  0  0  0
 19  6  4  0  0  0  0
 19 20  4  0  0  0  0
 20  1  4  0  0  0  0
 20 21  1  0  0  0  0
  7 22  1  0  0  0  0
 22 23  1  0  0  0  0
 23 24  1  0  0  0  0
 24 25  1  0  0  0  0
 25 26  1  0  0  0  0
 26 27  1  0  0  0  0
 26 28  1  0  0  0  0
 26 29  1  0  0  0  0
 25 30  1  0  0  0  0
 30 31  1  0  0  0  0
 30 32  1  0  0  0  0
 30 33  1  0  0  0  0
 24 34  1  0  0  0  0
 24 35  1  0  0  0  0
 23 36  1  0  0  0  0
 23 37  1  0  0  0  0
 22 38  1  0  0  0  0
 22 39  1  0  0  0  0
  1 40  1  0  0  0  0
M  END
> <CAS>
50-53-3

> <NAME>
CHLORPROMAZINE

> <preferred_name>
Chlorpromazine

> <iupac>
3-(2-chloro-10H-phenothiazin-10-yl)-N,N-dimethylpropan-1-amine

> <SMILES>
CN(C)CCCN1c2ccccc2Sc2ccc(Cl)cc12

> <Canonical_QSARr>
CN(C)CCCN1c2ccccc2Sc2ccc(Cl)cc12

> <InChI_Code_QSARr>
InChI=1S/C17H19ClN2S/c1-19(2)10-5-11-20-14-6-3-4-7-16(14)21-17-9-8-13(18)12-15(17)20/h3-4,6-9,12H,5,10-11H2,1-2H3

> <InChI Key_QSARr>
ZPEIMTDSQAKGNT-UHFFFAOYSA-N

> <Salt_Solvent>
?

> <WS Temperature>
24

> <WS Reference>
YALKOWSKY,SH & HE,Y (2003)

> <dsstox_substance_id>
DTXSID0022808

> <LogMolar>
-5.0971

$$$$
50-70-4, 69-65-8, 608-66-2
  -INDIGO-01081615412D

 26 25  0  0  0  0  0  0  0  0999 V2000
    0.0001    0.0000    0.0000 C   0  0  0  0  0  0  0  0  0  0  0  0
    0.0001    1.6000    0.0000 O   0  0  0  0  0  0  0  0  0  0  0  0
   -1.3856    2.4000    0.0000 H   0  0  0  0  0  0  0  0  0  0  0  0
   -1.5756   -0.2778    0.0000 C   0  0  0  0  0  0  0  0  0  0  0  0
   -3.1513   -0.5557    0.0000 C   0  0  0  0  0  0  0  0  0  0  0  0
   -4.7270   -0.8335    0.0000 O   0  0  0  0  0  0  0  0  0  0  0  0
   -5.7555    0.3922    0.0000 H   0  0  0  0  0  0  0  0  0  0  0  0
   -3.1513   -2.1557    0.0000 H   0  0  0  0  0  0  0  0  0  0  0  0
   -3.4292    1.0200    0.0000 H   0  0  0  0  0  0  0  0  0  0  0  0
   -1.2980   -1.8535    0.0000 O   0  0  0  0  0  0  0  0  0  0  0  0
   -2.3263   -3.0792    0.0000 H   0  0  0  0  0  0  0  0  0  0  0  0
   -1.8535    1.2979    0.0000 H   0  0  0  0  0  0  0  0  0  0  0  0
    1.5999    0.0000    0.0000 C   0  0  0  0  0  0  0  0  0  0  0  0
    1.5999   -1.6000    0.0000 O   0  0  0  0  0  0  0  0  0  0  0  0
    2.9856   -2.4000    0.0000 H   0  0  0  0  0  0  0  0  0  0  0  0
    3.1756    0.2778    0.0000 C   0  0  0  0  0  0  0  0  0  0  0  0
    4.7513    0.5557    0.0000 C   0  0  0  0  0  0  0  0  0  0  0  0
    6.3270    0.8335    0.0000 O   0  0  0  0  0  0  0  0  0  0  0  0
    7.3555   -0.3922    0.0000 H   0  0  0  0  0  0  0  0  0  0  0  0
    4.4736    2.1314    0.0000 H   0  0  0  0  0  0  0  0  0  0  0  0
    5.0292   -1.0200    0.0000 H   0  0  0  0  0  0  0  0  0  0  0  0
    2.8980    1.8535    0.0000 O   0  0  0  0  0  0  0  0  0  0  0  0
    3.9263    3.0792    0.0000 H   0  0  0  0  0  0  0  0  0  0  0  0
    3.4535   -1.2979    0.0000 H   0  0  0  0  0  0  0  0  0  0  0  0
    1.5999    1.6000    0.0000 H   0  0  0  0  0  0  0  0  0  0  0  0
    0.0001   -1.6000    0.0000 H   0  0  0  0  0  0  0  0  0  0  0  0
  1  2  1  0  0  0  0
  2  3  1  0  0  0  0
  1  4  1  0  0  0  0
  4  5  1  0  0  0  0
  5  6  1  0  0  0  0
  6  7  1  0  0  0  0
  5  8  1  0  0  0  0
  5  9  1  0  0  0  0
  4 10  1  0  0  0  0
 10 11  1  0  0  0  0
  4 12  1  0  0  0  0
  1 13  1  0  0  0  0
 13 14  1  0  0  0  0
 14 15  1  0  0  0  0
 13 16  1  0  0  0  0
 16 17  1  0  0  0  0
 17 18  1  0  0  0  0
 18 19  1  0  0  0  0
 17 20  1  0  0  0  0
 17 21  1  0  0  0  0
 16 22  1  0  0  0  0
 22 23  1  0  0  0  0
 16 24  1  0  0  0  0
 13 25  1  0  0  0  0
  1 26  1  0  0  0  0
M  END
> <CAS>
50-70-4, 69-65-8, 608-66-2

> <NAME>
SORBITOL, MANNITOL, GALACTITOL

> <preferred_name>
D-Glucitol

> <iupac>
D-glucitol

> <SMILES>
O[C@H](CO)[C@@H](O)[C@H](O)[C@@H](O)CO

> <Canonical_QSARr>
OC(CO)C(O)C(O)C(O)CO

> <InChI_Code_QSARr>
InChI=1S/C6H14O6/c7-1-3(9)5(11)6(12)4(10)2-8/h3-12H,1-2H2

> <InChI Key_QSARr>
FBPFZTCFMRRESA-UHFFFAOYSA-N

> <Salt_Solvent>
?

> <WS Temperature>
20

> <WS Reference>
YALKOWSKY,SH & HE,Y (2003)

> <dsstox_substance_id>
DTXSID5023588

> <LogMolar>
0.161466666666667

$$$$
50-82-8
  -INDIGO-01081615412D

 15 15  0  0  0  0  0  0  0  0999 V2000
   -0.8000    1.3856    0.0000 C   0  0  0  0  0  0  0  0  0  0  0  0
   -2.4000    1.3856    0.0000 C   0  0  0  0  0  0  0  0  0  0  0  0
   -3.2001    2.7713    0.0000 Cl  0  0  0  0  0  0  0  0  0  0  0  0
   -3.2001   -0.0000    0.0000 C   0  0  0  0  0  0  0  0  0  0  0  0
   -4.8000   -0.0000    0.0000 Cl  0  0  0  0  0  0  0  0  0  0  0  0
   -2.4000   -1.3856    0.0000 C   0  0  0  0  0  0  0  0  0  0  0  0
   -3.2001   -2.7713    0.0000 H   0  0  0  0  0  0  0  0  0  0  0  0
   -0.8000   -1.3856    0.0000 C   0  0  0  0  0  0  0  0  0  0  0  0
   -0.0000   -2.7713    0.0000 Cl  0  0  0  0  0  0  0  0  0  0  0  0
   -0.0000   -0.0000    0.0000 C   0  0  0  0  0  0  0  0  0  0  0  0
    1.6000    0.0000    0.0000 C   0  0  0  0  0  0  0  0  0  0  0  0
    2.4001   -1.3856    0.0000 O   0  0  0  0  0  0  0  0  0  0  0  0
    4.0000   -1.3856    0.0000 H   0  0  0  0  0  0  0  0  0  0  0  0
    2.4001    1.3856    0.0000 O   0  0  0  0  0  0  0  0  0  0  0  0
   -0.0000    2.7713    0.0000 H   0  0  0  0  0  0  0  0  0  0  0  0
  1  2  4  0  0  0  0
  2  3  1  0  0  0  0
  2  4  4  0  0  0  0
  4  5  1  0  0  0  0
  4  6  4  0  0  0  0
  6  7  1  0  0  0  0
  6  8  4  0  0  0  0
  8  9  1  0  0  0  0
  8 10  4  0  0  0  0
 10  1  4  0  0  0  0
 10 11  1  0  0  0  0
 11 12  1  0  0  0  0
 12 13  1  0  0  0  0
 11 14  2  0  0  0  0
  1 15  1  0  0  0  0
M  END
> <CAS>
50-82-8

> <NAME>
2,4,5-TRICHLOROBENZOIC ACID

> <preferred_name>
2,4,5-Trichlorobenzoic acid

> <iupac>
2,4,5-TRICHLOROBENZOIC ACID

> <SMILES>
OC(=O)c1cc(Cl)c(Cl)cc1Cl

> <Canonical_QSARr>
OC(=O)c1cc(Cl)c(Cl)cc1Cl

> <InChI_Code_QSARr>
InChI=1S/C7H3Cl3O2/c8-4-2-6(10)5(9)1-3(4)7(11)12/h1-2H,(H,11,12)

> <InChI Key_QSARr>
PTFNNDHASFGWFI-UHFFFAOYSA-N

> <Salt_Solvent>
?

> <WS Temperature>
25

> <WS Reference>
SHIU,WY ET AL. (1990)

> <dsstox_substance_id>
DTXSID8075332

> <LogMolar>
-2.4446

$$$$
51-03-6
  -INDIGO-01081615412D

 54 55  0  0  0  0  0  0  0  0999 V2000
    3.0854    3.6771    0.0000 C   0  0  0  0  0  0  0  0  0  0  0  0
    2.0570    2.4513    0.0000 C   0  0  0  0  0  0  0  0  0  0  0  0
    1.0283    1.2258    0.0000 C   0  0  0  0  0  0  0  0  0  0  0  0
   -0.0000    0.0000    0.0000 C   0  0  0  0  0  0  0  0  0  0  0  0
   -1.5999    0.0000    0.0000 C   0  0  0  0  0  0  0  0  0  0  0  0
   -2.6286    1.2256    0.0000 C   0  0  0  0  0  0  0  0  0  0  0  0
   -3.6570    2.4513    0.0000 O   0  0  0  0  0  0  0  0  0  0  0  0
   -5.2326    2.1735    0.0000 C   0  0  0  0  0  0  0  0  0  0  0  0
   -6.8083    1.8956    0.0000 C   0  0  0  0  0  0  0  0  0  0  0  0
   -8.3840    1.6178    0.0000 O   0  0  0  0  0  0  0  0  0  0  0  0
   -9.4124    2.8436    0.0000 C   0  0  0  0  0  0  0  0  0  0  0  0
  -10.4411    4.0691    0.0000 C   0  0  0  0  0  0  0  0  0  0  0  0
  -11.4694    5.2949    0.0000 O   0  0  0  0  0  0  0  0  0  0  0  0
  -13.0451    5.0170    0.0000 C   0  0  0  0  0  0  0  0  0  0  0  0
  -14.6208    4.7392    0.0000 C   0  0  0  0  0  0  0  0  0  0  0  0
  -16.1965    4.4613    0.0000 C   0  0  0  0  0  0  0  0  0  0  0  0
  -17.7722    4.1835    0.0000 C   0  0  0  0  0  0  0  0  0  0  0  0
  -19.3478    3.9057    0.0000 H   0  0  0  0  0  0  0  0  0  0  0  0
  -18.8005    5.4093    0.0000 H   0  0  0  0  0  0  0  0  0  0  0  0
  -18.3195    2.6799    0.0000 H   0  0  0  0  0  0  0  0  0  0  0  0
  -16.4742    6.0370    0.0000 H   0  0  0  0  0  0  0  0  0  0  0  0
  -15.9188    2.8857    0.0000 H   0  0  0  0  0  0  0  0  0  0  0  0
  -14.8985    6.3149    0.0000 H   0  0  0  0  0  0  0  0  0  0  0  0
  -14.3431    3.1635    0.0000 H   0  0  0  0  0  0  0  0  0  0  0  0
  -13.3228    6.5927    0.0000 H   0  0  0  0  0  0  0  0  0  0  0  0
  -12.7671    3.4413    0.0000 H   0  0  0  0  0  0  0  0  0  0  0  0
  -11.6665    3.0408    0.0000 H   0  0  0  0  0  0  0  0  0  0  0  0
   -9.2153    5.0976    0.0000 H   0  0  0  0  0  0  0  0  0  0  0  0
  -10.6382    1.8150    0.0000 H   0  0  0  0  0  0  0  0  0  0  0  0
   -8.1869    3.8719    0.0000 H   0  0  0  0  0  0  0  0  0  0  0  0
   -7.0860    3.4713    0.0000 H   0  0  0  0  0  0  0  0  0  0  0  0
   -6.5306    0.3200    0.0000 H   0  0  0  0  0  0  0  0  0  0  0  0
   -5.5103    3.7492    0.0000 H   0  0  0  0  0  0  0  0  0  0  0  0
   -4.9549    0.5978    0.0000 H   0  0  0  0  0  0  0  0  0  0  0  0
   -3.8541    0.1972    0.0000 H   0  0  0  0  0  0  0  0  0  0  0  0
   -1.5999    2.4513    0.0000 H   0  0  0  0  0  0  0  0  0  0  0  0
   -2.4000   -1.3856    0.0000 C   0  0  0  0  0  0  0  0  0  0  0  0
   -3.9999   -1.3856    0.0000 H   0  0  0  0  0  0  0  0  0  0  0  0
   -1.5999   -2.7712    0.0000 C   0  0  0  0  0  0  0  0  0  0  0  0
   -2.0945   -4.2929    0.0000 O   0  0  0  0  0  0  0  0  0  0  0  0
   -0.8001   -5.2335    0.0000 C   0  0  0  0  0  0  0  0  0  0  0  0
    0.4945   -4.2929    0.0000 O   0  0  0  0  0  0  0  0  0  0  0  0
   -0.0000   -2.7712    0.0000 C   0  0  0  0  0  0  0  0  0  0  0  0
    0.8001   -1.3856    0.0000 C   0  0  0  0  0  0  0  0  0  0  0  0
    2.3999   -1.3856    0.0000 H   0  0  0  0  0  0  0  0  0  0  0  0
   -1.8706   -6.4225    0.0000 H   0  0  0  0  0  0  0  0  0  0  0  0
    0.2707   -6.4225    0.0000 H   0  0  0  0  0  0  0  0  0  0  0  0
   -0.1971    2.2541    0.0000 H   0  0  0  0  0  0  0  0  0  0  0  0
    2.2541    0.1972    0.0000 H   0  0  0  0  0  0  0  0  0  0  0  0
    0.8312    3.4799    0.0000 H   0  0  0  0  0  0  0  0  0  0  0  0
    3.2825    1.4230    0.0000 H   0  0  0  0  0  0  0  0  0  0  0  0
    4.1137    4.9026    0.0000 H   0  0  0  0  0  0  0  0  0  0  0  0
    2.5381    5.1805    0.0000 H   0  0  0  0  0  0  0  0  0  0  0  0
    4.6611    3.3992    0.0000 H   0  0  0  0  0  0  0  0  0  0  0  0
  1  2  1  0  0  0  0
  2  3  1  0  0  0  0
  3  4  1  0  0  0  0
  4  5  4  0  0  0  0
  5  6  1  0  0  0  0
  6  7  1  0  0  0  0
  7  8  1  0  0  0  0
  8  9  1  0  0  0  0
  9 10  1  0  0  0  0
 10 11  1  0  0  0  0
 11 12  1  0  0  0  0
 12 13  1  0  0  0  0
 13 14  1  0  0  0  0
 14 15  1  0  0  0  0
 15 16  1  0  0  0  0
 16 17  1  0  0  0  0
 17 18  1  0  0  0  0
 17 19  1  0  0  0  0
 17 20  1  0  0  0  0
 16 21  1  0  0  0  0
 16 22  1  0  0  0  0
 15 23  1  0  0  0  0
 15 24  1  0  0  0  0
 14 25  1  0  0  0  0
 14 26  1  0  0  0  0
 12 27  1  0  0  0  0
 12 28  1  0  0  0  0
 11 29  1  0  0  0  0
 11 30  1  0  0  0  0
  9 31  1  0  0  0  0
  9 32  1  0  0  0  0
  8 33  1  0  0  0  0
  8 34  1  0  0  0  0
  6 35  1  0  0  0  0
  6 36  1  0  0  0  0
  5 37  4  0  0  0  0
 37 38  1  0  0  0  0
 37 39  4  0  0  0  0
 39 40  1  0  0  0  0
 40 41  1  0  0  0  0
 41 42  1  0  0  0  0
 42 43  1  0  0  0  0
 43 39  4  0  0  0  0
 43 44  4  0  0  0  0
 44  4  4  0  0  0  0
 44 45  1  0  0  0  0
 41 46  1  0  0  0  0
 41 47  1  0  0  0  0
  3 48  1  0  0  0  0
  3 49  1  0  0  0  0
  2 50  1  0  0  0  0
  2 51  1  0  0  0  0
  1 52  1  0  0  0  0
  1 53  1  0  0  0  0
  1 54  1  0  0  0  0
M  END
> <CAS>
51-03-6

> <NAME>
PIPERONYL BUTOXIDE

> <preferred_name>
Piperonyl butoxide

> <iupac>
5-{[2-(2-butoxyethoxy)ethoxy]methyl}-6-propyl-1,3-benzodioxole

> <SMILES>
CCCc1cc2OCOc2cc1COCCOCCOCCCC

> <Canonical_QSARr>
CCCc1cc2OCOc2cc1COCCOCCOCCCC

> <InChI_Code_QSARr>
InChI=1S/C19H30O5/c1-3-5-7-20-8-9-21-10-11-22-14-17-13-19-18(23-15-24-19)12-16(17)6-4-2/h12-13H,3-11,14-15H2,1-2H3

> <InChI Key_QSARr>
FIPWRIJSWJWJAI-UHFFFAOYSA-N

> <Salt_Solvent>
?

> <WS Temperature>
25

> <WS Reference>
TOMLIN,C (1997)

> <dsstox_substance_id>
DTXSID1021166

> <LogMolar>
-4.3742

$$$$
51-44-5
  -INDIGO-01081615412D

 15 15  0  0  0  0  0  0  0  0999 V2000
    1.6000    0.0000    0.0000 C   0  0  0  0  0  0  0  0  0  0  0  0
   -0.0000   -0.0000    0.0000 C   0  0  0  0  0  0  0  0  0  0  0  0
   -0.8000    1.3856    0.0000 C   0  0  0  0  0  0  0  0  0  0  0  0
   -0.0000    2.7713    0.0000 H   0  0  0  0  0  0  0  0  0  0  0  0
   -2.4000    1.3856    0.0000 C   0  0  0  0  0  0  0  0  0  0  0  0
   -3.2001    2.7713    0.0000 Cl  0  0  0  0  0  0  0  0  0  0  0  0
   -3.2001   -0.0000    0.0000 C   0  0  0  0  0  0  0  0  0  0  0  0
   -4.8000   -0.0000    0.0000 Cl  0  0  0  0  0  0  0  0  0  0  0  0
   -2.4000   -1.3856    0.0000 C   0  0  0  0  0  0  0  0  0  0  0  0
   -3.2001   -2.7713    0.0000 H   0  0  0  0  0  0  0  0  0  0  0  0
   -0.8000   -1.3856    0.0000 C   0  0  0  0  0  0  0  0  0  0  0  0
   -0.0000   -2.7713    0.0000 H   0  0  0  0  0  0  0  0  0  0  0  0
    2.4001   -1.3856    0.0000 O   0  0  0  0  0  0  0  0  0  0  0  0
    4.0000   -1.3856    0.0000 H   0  0  0  0  0  0  0  0  0  0  0  0
    2.4001    1.3856    0.0000 O   0  0  0  0  0  0  0  0  0  0  0  0
  1  2  1  0  0  0  0
  2  3  4  0  0  0  0
  3  4  1  0  0  0  0
  3  5  4  0  0  0  0
  5  6  1  0  0  0  0
  5  7  4  0  0  0  0
  7  8  1  0  0  0  0
  7  9  4  0  0  0  0
  9 10  1  0  0  0  0
  9 11  4  0  0  0  0
 11  2  4  0  0  0  0
 11 12  1  0  0  0  0
  1 13  1  0  0  0  0
 13 14  1  0  0  0  0
  1 15  2  0  0  0  0
M  END
> <CAS>
51-44-5

> <NAME>
3,4-DICHLOROBENZOIC ACID

> <preferred_name>
3,4-Dichlorobenzoic acid

> <iupac>
3,4-dichlorobenzoic acid

> <SMILES>
OC(=O)c1cc(Cl)c(Cl)cc1

> <Canonical_QSARr>
OC(=O)c1cc(Cl)c(Cl)cc1

> <InChI_Code_QSARr>
InChI=1S/C7H4Cl2O2/c8-5-2-1-4(7(10)11)3-6(5)9/h1-3H,(H,10,11)

> <InChI Key_QSARr>
VPHHJAOJUJHJKD-UHFFFAOYSA-N

> <Salt_Solvent>
?

> <WS Temperature>


> <WS Reference>
YALKOWSKY,SH & DANNENFELSER,RM (1992)

> <dsstox_substance_id>
DTXSID9024980

> <LogMolar>
-3.495

$$$$
52-01-7
  -INDIGO-01081615412D

 61 65  0  0  0  0  0  0  0  0999 V2000
    4.8000    0.0001    0.0000 C   0  0  0  0  0  0  0  0  0  0  0  0
    4.3886   -0.4902    0.0000 C   0  0  0  0  0  0  0  0  0  0  0  0
    4.2965   -1.3860    0.0000 H   0  0  0  0  0  0  0  0  0  0  0  0
    4.0000   -1.3857    0.0000 H   0  0  0  0  0  0  0  0  0  0  0  0
    3.8413    1.0132    0.0000 H   0  0  0  0  0  0  0  0  0  0  0  0
    3.2001    0.0001    0.0000 C   0  0  0  0  0  0  0  0  0  0  0  0
    2.4001   -1.3857    0.0000 C   0  0  0  0  0  0  0  0  0  0  0  0
    0.7999   -1.3857    0.0000 C   0  0  0  0  0  0  0  0  0  0  0  0
   -0.0000    0.0001    0.0000 C   0  0  0  0  0  0  0  0  0  0  0  0
   -0.9405   -1.2944    0.0000 C   0  0  0  0  0  0  0  0  0  0  0  0
    0.1426   -0.9340    0.0000 H   0  0  0  0  0  0  0  0  0  0  0  0
   -0.9052   -2.7093    0.0000 H   0  0  0  0  0  0  0  0  0  0  0  0
   -0.7035   -1.9330    0.0000 H   0  0  0  0  0  0  0  0  0  0  0  0
    0.7999    1.3856    0.0000 C   0  0  0  0  0  0  0  0  0  0  0  0
    0.9116    2.9817    0.0000 H   0  0  0  0  0  0  0  0  0  0  0  0
    2.4001    1.3856    0.0000 C   0  0  0  0  0  0  0  0  0  0  0  0
    1.5999    2.7713    0.0000 H   0  0  0  0  0  0  0  0  0  0  0  0
    3.2001    2.7713    0.0000 C   0  0  0  0  0  0  0  0  0  0  0  0
    3.4779    4.3471    0.0000 S   0  0  0  0  0  0  0  0  0  0  0  0
    2.2522    5.3755    0.0000 C   0  0  0  0  0  0  0  0  0  0  0  0
    2.5300    6.9511    0.0000 C   0  0  0  0  0  0  0  0  0  0  0  0
    2.8078    8.5268    0.0000 H   0  0  0  0  0  0  0  0  0  0  0  0
    1.3043    7.9795    0.0000 H   0  0  0  0  0  0  0  0  0  0  0  0
    4.0335    7.4984    0.0000 H   0  0  0  0  0  0  0  0  0  0  0  0
    0.7487    4.8282    0.0000 O   0  0  0  0  0  0  0  0  0  0  0  0
    1.8143    3.5713    0.0000 H   0  0  0  0  0  0  0  0  0  0  0  0
    4.8000    2.7713    0.0000 C   0  0  0  0  0  0  0  0  0  0  0  0
    6.3035    3.3184    0.0000 H   0  0  0  0  0  0  0  0  0  0  0  0
    4.5222    4.3471    0.0000 H   0  0  0  0  0  0  0  0  0  0  0  0
    5.6000    1.3856    0.0000 C   0  0  0  0  0  0  0  0  0  0  0  0
    7.2001    1.3856    0.0000 C   0  0  0  0  0  0  0  0  0  0  0  0
    8.0001    2.7713    0.0000 H   0  0  0  0  0  0  0  0  0  0  0  0
    8.0001    0.0001    0.0000 C   0  0  0  0  0  0  0  0  0  0  0  0
    9.6000    0.0001    0.0000 O   0  0  0  0  0  0  0  0  0  0  0  0
    7.2001   -1.3857    0.0000 C   0  0  0  0  0  0  0  0  0  0  0  0
    6.9221   -2.9614    0.0000 H   0  0  0  0  0  0  0  0  0  0  0  0
    8.7036   -1.9330    0.0000 H   0  0  0  0  0  0  0  0  0  0  0  0
    5.6000   -1.3857    0.0000 C   0  0  0  0  0  0  0  0  0  0  0  0
    4.9359   -1.9938    0.0000 H   0  0  0  0  0  0  0  0  0  0  0  0
    5.8778   -2.9614    0.0000 H   0  0  0  0  0  0  0  0  0  0  0  0
   -0.2707    2.5747    0.0000 C   0  0  0  0  0  0  0  0  0  0  0  0
    0.8408    3.7256    0.0000 H   0  0  0  0  0  0  0  0  0  0  0  0
   -1.0706    3.9603    0.0000 H   0  0  0  0  0  0  0  0  0  0  0  0
   -1.7324    1.9240    0.0000 C   0  0  0  0  0  0  0  0  0  0  0  0
   -2.2266    3.4456    0.0000 H   0  0  0  0  0  0  0  0  0  0  0  0
   -3.2972    1.5913    0.0000 H   0  0  0  0  0  0  0  0  0  0  0  0
   -1.5651    0.3327    0.0000 C   0  0  0  0  0  0  0  0  0  0  0  0
   -3.1302    0.6652    0.0000 O   0  0  0  0  0  0  0  0  0  0  0  0
   -3.9301   -0.7203    0.0000 C   0  0  0  0  0  0  0  0  0  0  0  0
   -5.5213   -0.8876    0.0000 O   0  0  0  0  0  0  0  0  0  0  0  0
   -2.8595   -1.9093    0.0000 C   0  0  0  0  0  0  0  0  0  0  0  0
   -4.1540   -2.8499    0.0000 H   0  0  0  0  0  0  0  0  0  0  0  0
   -2.3122   -3.4129    0.0000 H   0  0  0  0  0  0  0  0  0  0  0  0
   -1.3978   -1.2585    0.0000 C   0  0  0  0  0  0  0  0  0  0  0  0
   -1.8810   -2.5888    0.0000 H   0  0  0  0  0  0  0  0  0  0  0  0
   -2.5317   -1.1271    0.0000 H   0  0  0  0  0  0  0  0  0  0  0  0
    0.3761   -1.9187    0.0000 H   0  0  0  0  0  0  0  0  0  0  0  0
    1.0778   -2.9614    0.0000 H   0  0  0  0  0  0  0  0  0  0  0  0
    2.1221   -2.9614    0.0000 H   0  0  0  0  0  0  0  0  0  0  0  0
    3.4285   -2.6112    0.0000 H   0  0  0  0  0  0  0  0  0  0  0  0
    3.2907   -0.9719    0.0000 H   0  0  0  0  0  0  0  0  0  0  0  0
  1  2  1  0  0  0  0
  2  3  1  0  0  0  0
  2  4  1  0  0  0  0
  2  5  1  0  0  0  0
  1  6  1  0  0  0  0
  6  7  1  0  0  0  0
  7  8  1  0  0  0  0
  8  9  1  0  0  0  0
  9 10  1  0  0  0  0
 10 11  1  0  0  0  0
 10 12  1  0  0  0  0
 10 13  1  0  0  0  0
  9 14  1  0  0  0  0
 14 15  1  0  0  0  0
 14 16  1  0  0  0  0
 16  6  1  0  0  0  0
 16 17  1  0  0  0  0
 16 18  1  0  0  0  0
 18 19  1  0  0  0  0
 19 20  1  0  0  0  0
 20 21  1  0  0  0  0
 21 22  1  0  0  0  0
 21 23  1  0  0  0  0
 21 24  1  0  0  0  0
 20 25  2  0  0  0  0
 18 26  1  0  0  0  0
 18 27  1  0  0  0  0
 27 28  1  0  0  0  0
 27 29  1  0  0  0  0
 27 30  1  0  0  0  0
 30  1  1  0  0  0  0
 30 31  2  0  0  0  0
 31 32  1  0  0  0  0
 31 33  1  0  0  0  0
 33 34  2  0  0  0  0
 33 35  1  0  0  0  0
 35 36  1  0  0  0  0
 35 37  1  0  0  0  0
 35 38  1  0  0  0  0
 38  1  1  0  0  0  0
 38 39  1  0  0  0  0
 38 40  1  0  0  0  0
 14 41  1  0  0  0  0
 41 42  1  0  0  0  0
 41 43  1  0  0  0  0
 41 44  1  0  0  0  0
 44 45  1  0  0  0  0
 44 46  1  0  0  0  0
 44 47  1  0  0  0  0
 47  9  1  0  0  0  0
 47 48  1  0  0  0  0
 48 49  1  0  0  0  0
 49 50  2  0  0  0  0
 49 51  1  0  0  0  0
 51 52  1  0  0  0  0
 51 53  1  0  0  0  0
 51 54  1  0  0  0  0
 54 47  1  0  0  0  0
 54 55  1  0  0  0  0
 54 56  1  0  0  0  0
  8 57  1  0  0  0  0
  8 58  1  0  0  0  0
  7 59  1  0  0  0  0
  7 60  1  0  0  0  0
  6 61  1  0  0  0  0
M  END
> <CAS>
52-01-7

> <NAME>
SPIRONOLACTONE

> <preferred_name>
Spironolactone

> <iupac>
S-[(7R,8R,9S,10R,13S,14S,17R)-10,13-dimethyl-3,5'-dioxo-1,2,3,4',5',6,7,8,9,10,11,12,13,14,15,16-hexadecahydro-3'H-spiro[cyclopenta[a]phenanthrene-17,2'-furan]-7-yl] ethanethioate

> <SMILES>
CC(=O)S[C@@H]1CC2=CC(=O)CC[C@]2(C)[C@H]2CC[C@@]3(C)[C@@H](CC[C@]43CCC(=O)O4)[C@@H]21

> <Canonical_QSARr>
CC(=O)SC1CC2=CC(=O)CCC2(C)C2CCC3(C)C(CCC43CCC(=O)O4)C21

> <InChI_Code_QSARr>
InChI=1S/C24H32O4S/c1-14(25)29-19-13-15-12-16(26)4-8-22(15,2)17-5-9-23(3)18(21(17)19)6-10-24(23)11-7-20(27)28-24/h12,17-19,21H,4-11,13H2,1-3H3

> <InChI Key_QSARr>
LXMSZDCAJNLERA-UHFFFAOYSA-N

> <Salt_Solvent>
?

> <WS Temperature>
25

> <WS Reference>
YALKOWSKY,SH & HE,Y (2003)

> <dsstox_substance_id>
DTXSID6034186

> <LogMolar>
-4.2773

$$$$
52-43-7
  -INDIGO-01081615412D

 27 27  0  0  0  0  0  0  0  0999 V2000
   -0.0000   -0.0001    0.0000 C   0  0  0  0  0  0  0  0  0  0  0  0
   -0.8000    1.3856    0.0000 C   0  0  0  0  0  0  0  0  0  0  0  0
   -0.5221    2.9614    0.0000 O   0  0  0  0  0  0  0  0  0  0  0  0
   -2.4000    1.3856    0.0000 N   0  0  0  0  0  0  0  0  0  0  0  0
   -3.2000    2.7713    0.0000 H   0  0  0  0  0  0  0  0  0  0  0  0
   -3.2000   -0.0001    0.0000 C   0  0  0  0  0  0  0  0  0  0  0  0
   -4.8000   -0.0001    0.0000 O   0  0  0  0  0  0  0  0  0  0  0  0
   -2.4000   -1.3856    0.0000 N   0  0  0  0  0  0  0  0  0  0  0  0
   -3.2000   -2.7713    0.0000 H   0  0  0  0  0  0  0  0  0  0  0  0
   -0.8000   -1.3856    0.0000 C   0  0  0  0  0  0  0  0  0  0  0  0
   -0.2527   -2.8892    0.0000 O   0  0  0  0  0  0  0  0  0  0  0  0
    1.3856   -0.8000    0.0000 C   0  0  0  0  0  0  0  0  0  0  0  0
    2.7713   -1.6000    0.0000 C   0  0  0  0  0  0  0  0  0  0  0  0
    2.7713   -3.2000    0.0000 C   0  0  0  0  0  0  0  0  0  0  0  0
    4.1569   -4.0000    0.0000 H   0  0  0  0  0  0  0  0  0  0  0  0
    1.3856   -4.0000    0.0000 H   0  0  0  0  0  0  0  0  0  0  0  0
    4.1569   -0.8000    0.0000 H   0  0  0  0  0  0  0  0  0  0  0  0
    2.2541   -0.1972    0.0000 H   0  0  0  0  0  0  0  0  0  0  0  0
    0.5856   -2.1856    0.0000 H   0  0  0  0  0  0  0  0  0  0  0  0
    1.2257    1.0284    0.0000 C   0  0  0  0  0  0  0  0  0  0  0  0
    2.4514    2.0569    0.0000 C   0  0  0  0  0  0  0  0  0  0  0  0
    2.1735    3.6326    0.0000 C   0  0  0  0  0  0  0  0  0  0  0  0
    3.3992    4.6611    0.0000 H   0  0  0  0  0  0  0  0  0  0  0  0
    0.6700    4.1799    0.0000 H   0  0  0  0  0  0  0  0  0  0  0  0
    3.9549    1.5097    0.0000 H   0  0  0  0  0  0  0  0  0  0  0  0
    0.1972    2.2542    0.0000 H   0  0  0  0  0  0  0  0  0  0  0  0
    2.1857    0.5857    0.0000 H   0  0  0  0  0  0  0  0  0  0  0  0
  1  2  1  0  0  0  0
  2  3  2  0  0  0  0
  2  4  1  0  0  0  0
  4  5  1  0  0  0  0
  4  6  1  0  0  0  0
  6  7  2  0  0  0  0
  6  8  1  0  0  0  0
  8  9  1  0  0  0  0
  8 10  1  0  0  0  0
 10  1  1  0  0  0  0
 10 11  2  0  0  0  0
  1 12  1  0  0  0  0
 12 13  1  0  0  0  0
 13 14  2  0  0  0  0
 14 15  1  0  0  0  0
 14 16  1  0  0  0  0
 13 17  1  0  0  0  0
 12 18  1  0  0  0  0
 12 19  1  0  0  0  0
  1 20  1  0  0  0  0
 20 21  1  0  0  0  0
 21 22  2  0  0  0  0
 22 23  1  0  0  0  0
 22 24  1  0  0  0  0
 21 25  1  0  0  0  0
 20 26  1  0  0  0  0
 20 27  1  0  0  0  0
M  END
> <CAS>
52-43-7

> <NAME>
ALLOBARBITAL

> <preferred_name>
Allobarbital

> <iupac>
5,5-di(prop-2-en-1-yl)pyrimidine-2,4,6(1H,3H,5H)-trione

> <SMILES>
C=CCC1(CC=C)C(=O)NC(=O)NC1=O

> <Canonical_QSARr>
C=CCC1(CC=C)C(=O)NC(=O)NC1=O

> <InChI_Code_QSARr>
InChI=1S/C10H12N2O3/c1-3-5-10(6-4-2)7(13)11-9(15)12-8(10)14/h3-4H,1-2,5-6H2,(H2,11,12,13,14,15)

> <InChI Key_QSARr>
FDQGNLOWMMVRQL-UHFFFAOYSA-N

> <Salt_Solvent>
?

> <WS Temperature>
25

> <WS Reference>
YALKOWSKY,SH & DANNENFELSER,RM (1992)

> <dsstox_substance_id>
DTXSID9022572

> <LogMolar>
-2.0608

$$$$
52-68-6
  -INDIGO-01081615412D

 20 19  0  0  0  0  0  0  0  0999 V2000
    0.0000    0.0001    0.0000 P   0  0  0  0  0  0  0  0  0  0  0  0
   -1.6000    0.0001    0.0000 O   0  0  0  0  0  0  0  0  0  0  0  0
   -2.4001   -1.3856    0.0000 C   0  0  0  0  0  0  0  0  0  0  0  0
   -3.2000   -2.7713    0.0000 H   0  0  0  0  0  0  0  0  0  0  0  0
   -4.0000   -1.3856    0.0000 H   0  0  0  0  0  0  0  0  0  0  0  0
   -1.6000   -2.7713    0.0000 H   0  0  0  0  0  0  0  0  0  0  0  0
    0.0000    1.6000    0.0000 O   0  0  0  0  0  0  0  0  0  0  0  0
   -1.3856    2.4000    0.0000 C   0  0  0  0  0  0  0  0  0  0  0  0
   -2.7713    3.2000    0.0000 H   0  0  0  0  0  0  0  0  0  0  0  0
   -1.3856    4.0000    0.0000 H   0  0  0  0  0  0  0  0  0  0  0  0
   -2.7713    1.6000    0.0000 H   0  0  0  0  0  0  0  0  0  0  0  0
    0.0000   -1.6000    0.0000 O   0  0  0  0  0  0  0  0  0  0  0  0
    1.6000    0.0001    0.0000 C   0  0  0  0  0  0  0  0  0  0  0  0
    1.6000   -1.6000    0.0000 O   0  0  0  0  0  0  0  0  0  0  0  0
    2.9856   -2.4000    0.0000 H   0  0  0  0  0  0  0  0  0  0  0  0
    3.2001    0.0001    0.0000 C   0  0  0  0  0  0  0  0  0  0  0  0
    4.8000    0.0001    0.0000 Cl  0  0  0  0  0  0  0  0  0  0  0  0
    4.0000    1.3856    0.0000 Cl  0  0  0  0  0  0  0  0  0  0  0  0
    4.0000   -1.3856    0.0000 Cl  0  0  0  0  0  0  0  0  0  0  0  0
    1.6000    1.6000    0.0000 H   0  0  0  0  0  0  0  0  0  0  0  0
  1  2  1  0  0  0  0
  2  3  1  0  0  0  0
  3  4  1  0  0  0  0
  3  5  1  0  0  0  0
  3  6  1  0  0  0  0
  1  7  1  0  0  0  0
  7  8  1  0  0  0  0
  8  9  1  0  0  0  0
  8 10  1  0  0  0  0
  8 11  1  0  0  0  0
  1 12  2  0  0  0  0
  1 13  1  0  0  0  0
 13 14  1  0  0  0  0
 14 15  1  0  0  0  0
 13 16  1  0  0  0  0
 16 17  1  0  0  0  0
 16 18  1  0  0  0  0
 16 19  1  0  0  0  0
 13 20  1  0  0  0  0
M  END
> <CAS>
52-68-6

> <NAME>
TRICHLORFON

> <preferred_name>
Trichlorfon

> <iupac>
dimethyl (2,2,2-trichloro-1-hydroxyethyl)phosphonate

> <SMILES>
COP(=O)(OC)C(O)C(Cl)(Cl)Cl

> <Canonical_QSARr>
COP(=O)(OC)C(O)C(Cl)(Cl)Cl

> <InChI_Code_QSARr>
InChI=1S/C4H8Cl3O4P/c1-10-12(9,11-2)3(8)4(5,6)7/h3,8H,1-2H3

> <InChI Key_QSARr>
NFACJZMKEDPNKN-UHFFFAOYSA-N

> <Salt_Solvent>
?

> <WS Temperature>
25

> <WS Reference>
WAUCHOPE,RD ET AL. (1991A)

> <dsstox_substance_id>
DTXSID0021389

> <LogMolar>
-0.3315

$$$$
53-16-7
  -INDIGO-01081615412D

 42 45  0  0  0  0  0  0  0  0999 V2000
    0.8000   -1.3856    0.0000 C   0  0  0  0  0  0  0  0  0  0  0  0
    1.7405   -2.6801    0.0000 C   0  0  0  0  0  0  0  0  0  0  0  0
    2.6809   -3.9745    0.0000 H   0  0  0  0  0  0  0  0  0  0  0  0
    1.5035   -3.3186    0.0000 H   0  0  0  0  0  0  0  0  0  0  0  0
    3.3317   -2.5128    0.0000 H   0  0  0  0  0  0  0  0  0  0  0  0
    2.3651   -1.0530    0.0000 C   0  0  0  0  0  0  0  0  0  0  0  0
    3.7219   -1.9008    0.0000 O   0  0  0  0  0  0  0  0  0  0  0  0
    2.5323    0.5383    0.0000 C   0  0  0  0  0  0  0  0  0  0  0  0
    4.0973    0.2056    0.0000 H   0  0  0  0  0  0  0  0  0  0  0  0
    3.0268    2.0599    0.0000 H   0  0  0  0  0  0  0  0  0  0  0  0
    1.0707    1.1890    0.0000 C   0  0  0  0  0  0  0  0  0  0  0  0
    1.8705    2.5747    0.0000 H   0  0  0  0  0  0  0  0  0  0  0  0
   -0.2239    2.1295    0.0000 H   0  0  0  0  0  0  0  0  0  0  0  0
   -0.0001   -0.0000    0.0000 C   0  0  0  0  0  0  0  0  0  0  0  0
   -0.1117    1.5961    0.0000 H   0  0  0  0  0  0  0  0  0  0  0  0
   -1.6000   -0.0000    0.0000 C   0  0  0  0  0  0  0  0  0  0  0  0
   -0.7999    1.3856    0.0000 H   0  0  0  0  0  0  0  0  0  0  0  0
   -2.4001   -1.3856    0.0000 C   0  0  0  0  0  0  0  0  0  0  0  0
   -4.0001   -1.3856    0.0000 C   0  0  0  0  0  0  0  0  0  0  0  0
   -4.7999   -2.7712    0.0000 C   0  0  0  0  0  0  0  0  0  0  0  0
   -4.0001   -4.1569    0.0000 H   0  0  0  0  0  0  0  0  0  0  0  0
   -6.4001   -2.7712    0.0000 C   0  0  0  0  0  0  0  0  0  0  0  0
   -7.2000   -4.1569    0.0000 H   0  0  0  0  0  0  0  0  0  0  0  0
   -7.2000   -1.3856    0.0000 C   0  0  0  0  0  0  0  0  0  0  0  0
   -8.7999   -1.3856    0.0000 O   0  0  0  0  0  0  0  0  0  0  0  0
   -9.6000   -2.7712    0.0000 H   0  0  0  0  0  0  0  0  0  0  0  0
   -6.4001   -0.0000    0.0000 C   0  0  0  0  0  0  0  0  0  0  0  0
   -7.2000    1.3856    0.0000 H   0  0  0  0  0  0  0  0  0  0  0  0
   -4.7999   -0.0000    0.0000 C   0  0  0  0  0  0  0  0  0  0  0  0
   -4.0001    1.3856    0.0000 C   0  0  0  0  0  0  0  0  0  0  0  0
   -2.4001    1.3856    0.0000 C   0  0  0  0  0  0  0  0  0  0  0  0
   -1.0144    2.1856    0.0000 H   0  0  0  0  0  0  0  0  0  0  0  0
   -2.6779    2.9613    0.0000 H   0  0  0  0  0  0  0  0  0  0  0  0
   -3.7221    2.9613    0.0000 H   0  0  0  0  0  0  0  0  0  0  0  0
   -5.5034    1.9329    0.0000 H   0  0  0  0  0  0  0  0  0  0  0  0
   -3.2000   -2.7712    0.0000 H   0  0  0  0  0  0  0  0  0  0  0  0
   -1.6000   -2.7712    0.0000 C   0  0  0  0  0  0  0  0  0  0  0  0
   -2.9857   -3.5713    0.0000 H   0  0  0  0  0  0  0  0  0  0  0  0
   -1.3223   -4.3470    0.0000 H   0  0  0  0  0  0  0  0  0  0  0  0
   -0.0001   -2.7712    0.0000 C   0  0  0  0  0  0  0  0  0  0  0  0
   -0.2778   -4.3470    0.0000 H   0  0  0  0  0  0  0  0  0  0  0  0
    0.4238   -3.3043    0.0000 H   0  0  0  0  0  0  0  0  0  0  0  0
  1  2  1  0  0  0  0
  2  3  1  0  0  0  0
  2  4  1  0  0  0  0
  2  5  1  0  0  0  0
  1  6  1  0  0  0  0
  6  7  2  0  0  0  0
  6  8  1  0  0  0  0
  8  9  1  0  0  0  0
  8 10  1  0  0  0  0
  8 11  1  0  0  0  0
 11 12  1  0  0  0  0
 11 13  1  0  0  0  0
 11 14  1  0  0  0  0
 14  1  1  0  0  0  0
 14 15  1  0  0  0  0
 14 16  1  0  0  0  0
 16 17  1  0  0  0  0
 16 18  1  0  0  0  0
 18 19  1  0  0  0  0
 19 20  4  0  0  0  0
 20 21  1  0  0  0  0
 20 22  4  0  0  0  0
 22 23  1  0  0  0  0
 22 24  4  0  0  0  0
 24 25  1  0  0  0  0
 25 26  1  0  0  0  0
 24 27  4  0  0  0  0
 27 28  1  0  0  0  0
 27 29  4  0  0  0  0
 29 19  4  0  0  0  0
 29 30  1  0  0  0  0
 30 31  1  0  0  0  0
 31 16  1  0  0  0  0
 31 32  1  0  0  0  0
 31 33  1  0  0  0  0
 30 34  1  0  0  0  0
 30 35  1  0  0  0  0
 18 36  1  0  0  0  0
 18 37  1  0  0  0  0
 37 38  1  0  0  0  0
 37 39  1  0  0  0  0
 37 40  1  0  0  0  0
 40  1  1  0  0  0  0
 40 41  1  0  0  0  0
 40 42  1  0  0  0  0
M  END
> <CAS>
53-16-7

> <NAME>
ESTRONE

> <preferred_name>
Estrone

> <iupac>
3-hydroxyestra-1,3,5(10)-trien-17-one

> <SMILES>
C[C@]12CC[C@H]3[C@@H](CCc4cc(O)ccc43)[C@@H]1CCC2=O

> <Canonical_QSARr>
CC12CCC3C(CCc4cc(O)ccc43)C1CCC2=O

> <InChI_Code_QSARr>
InChI=1S/C18H22O2/c1-18-9-8-14-13-5-3-12(19)10-11(13)2-4-15(14)16(18)6-7-17(18)20/h3,5,10,14-16,19H,2,4,6-9H2,1H3

> <InChI Key_QSARr>
DNXHEGUUPJUMQT-UHFFFAOYSA-N

> <Salt_Solvent>
?

> <WS Temperature>
25

> <WS Reference>
MERCK INDEX (1996)

> <dsstox_substance_id>
DTXSID4022367

> <LogMolar>
-3.9548

$$$$
54-42-2
  -INDIGO-01081615412D

 28 29  0  0  0  0  0  0  0  0999 V2000
    1.5912   -0.1673    0.0000 N   0  0  0  0  0  0  0  0  0  0  0  0
   -0.0000    0.0000    0.0000 C   0  0  0  0  0  0  0  0  0  0  0  0
   -1.5217    0.4944    0.0000 C   0  0  0  0  0  0  0  0  0  0  0  0
   -0.8709    1.9561    0.0000 H   0  0  0  0  0  0  0  0  0  0  0  0
   -2.9074    1.2944    0.0000 H   0  0  0  0  0  0  0  0  0  0  0  0
   -2.4621   -0.8000    0.0000 C   0  0  0  0  0  0  0  0  0  0  0  0
   -3.6512    0.2706    0.0000 O   0  0  0  0  0  0  0  0  0  0  0  0
   -5.1729   -0.2238    0.0000 H   0  0  0  0  0  0  0  0  0  0  0  0
   -3.4121   -1.0894    0.0000 H   0  0  0  0  0  0  0  0  0  0  0  0
   -1.5217   -2.0944    0.0000 C   0  0  0  0  0  0  0  0  0  0  0  0
   -3.0252   -2.6416    0.0000 C   0  0  0  0  0  0  0  0  0  0  0  0
   -4.5287   -3.1889    0.0000 O   0  0  0  0  0  0  0  0  0  0  0  0
   -4.8065   -4.7646    0.0000 H   0  0  0  0  0  0  0  0  0  0  0  0
   -2.4780   -4.1452    0.0000 H   0  0  0  0  0  0  0  0  0  0  0  0
   -3.6512   -1.8706    0.0000 H   0  0  0  0  0  0  0  0  0  0  0  0
   -0.8709   -3.5561    0.0000 H   0  0  0  0  0  0  0  0  0  0  0  0
   -0.0000   -1.6000    0.0000 O   0  0  0  0  0  0  0  0  0  0  0  0
    0.3327    1.5651    0.0000 H   0  0  0  0  0  0  0  0  0  0  0  0
    2.2421   -1.6289    0.0000 C   0  0  0  0  0  0  0  0  0  0  0  0
    1.3016   -2.9234    0.0000 H   0  0  0  0  0  0  0  0  0  0  0  0
    3.8333   -1.7962    0.0000 C   0  0  0  0  0  0  0  0  0  0  0  0
    4.4840   -3.2579    0.0000 I   0  0  0  0  0  0  0  0  0  0  0  0
    4.7737   -0.5018    0.0000 C   0  0  0  0  0  0  0  0  0  0  0  0
    6.3649   -0.6689    0.0000 O   0  0  0  0  0  0  0  0  0  0  0  0
    4.1229    0.9600    0.0000 N   0  0  0  0  0  0  0  0  0  0  0  0
    5.0634    2.2544    0.0000 H   0  0  0  0  0  0  0  0  0  0  0  0
    2.5317    1.1271    0.0000 C   0  0  0  0  0  0  0  0  0  0  0  0
    1.8810    2.5889    0.0000 O   0  0  0  0  0  0  0  0  0  0  0  0
  1  2  1  0  0  0  0
  2  3  1  0  0  0  0
  3  4  1  0  0  0  0
  3  5  1  0  0  0  0
  3  6  1  0  0  0  0
  6  7  1  0  0  0  0
  7  8  1  0  0  0  0
  6  9  1  0  0  0  0
  6 10  1  0  0  0  0
 10 11  1  0  0  0  0
 11 12  1  0  0  0  0
 12 13  1  0  0  0  0
 11 14  1  0  0  0  0
 11 15  1  0  0  0  0
 10 16  1  0  0  0  0
 10 17  1  0  0  0  0
 17  2  1  0  0  0  0
  2 18  1  0  0  0  0
  1 19  1  0  0  0  0
 19 20  1  0  0  0  0
 19 21  2  0  0  0  0
 21 22  1  0  0  0  0
 21 23  1  0  0  0  0
 23 24  2  0  0  0  0
 23 25  1  0  0  0  0
 25 26  1  0  0  0  0
 25 27  1  0  0  0  0
 27  1  1  0  0  0  0
 27 28  2  0  0  0  0
M  END
> <CAS>
54-42-2

> <NAME>
URIDINE, 2'-DEOXY-5-IODO-

> <preferred_name>
Idoxuridine

> <iupac>
2'-deoxy-5-iodouridine

> <SMILES>
O[C@H]1C[C@@H](O[C@@H]1CO)N1C=C(I)C(=O)NC1=O

> <Canonical_QSARr>
OC1CC(OC1CO)N1C=C(I)C(=O)NC1=O

> <InChI_Code_QSARr>
InChI=1S/C9H11IN2O5/c10-4-2-12(9(16)11-8(4)15)7-1-5(14)6(3-13)17-7/h2,5-7,13-14H,1,3H2,(H,11,15,16)

> <InChI Key_QSARr>
XQFRJNBWHJMXHO-UHFFFAOYSA-N

> <Salt_Solvent>
?

> <WS Temperature>
25

> <WS Reference>
MERCK INDEX (1996)

> <dsstox_substance_id>
DTXSID2045238

> <LogMolar>
-2.2481

$$$$
55-22-1
  -INDIGO-01081615412D

 14 14  0  0  0  0  0  0  0  0999 V2000
    2.4000   -1.3856    0.0000 O   0  0  0  0  0  0  0  0  0  0  0  0
    1.6000    0.0000    0.0000 C   0  0  0  0  0  0  0  0  0  0  0  0
    0.0000   -0.0000    0.0000 C   0  0  0  0  0  0  0  0  0  0  0  0
   -0.8000    1.3856    0.0000 C   0  0  0  0  0  0  0  0  0  0  0  0
    0.0000    2.7713    0.0000 H   0  0  0  0  0  0  0  0  0  0  0  0
   -2.4000    1.3856    0.0000 C   0  0  0  0  0  0  0  0  0  0  0  0
   -3.2000    2.7713    0.0000 H   0  0  0  0  0  0  0  0  0  0  0  0
   -3.2000   -0.0000    0.0000 N   0  0  0  1  0  0  0  0  0  0  0  0
   -2.4000   -1.3856    0.0000 C   0  0  0  0  0  0  0  0  0  0  0  0
   -3.2000   -2.7713    0.0000 H   0  0  0  0  0  0  0  0  0  0  0  0
   -0.8000   -1.3856    0.0000 C   0  0  0  0  0  0  0  0  0  0  0  0
    0.0000   -2.7713    0.0000 H   0  0  0  0  0  0  0  0  0  0  0  0
    2.4000    1.3856    0.0000 O   0  0  0  0  0  0  0  0  0  0  0  0
    4.0000   -1.3856    0.0000 H   0  0  0  0  0  0  0  0  0  0  0  0
  1  2  1  0  0  0  0
  2  3  1  0  0  0  0
  3  4  4  0  0  0  0
  4  5  1  0  0  0  0
  4  6  4  0  0  0  0
  6  7  1  0  0  0  0
  6  8  4  0  0  0  0
  8  9  4  0  0  0  0
  9 10  1  0  0  0  0
  9 11  4  0  0  0  0
 11  3  4  0  0  0  0
 11 12  1  0  0  0  0
  2 13  2  0  0  0  0
  1 14  1  0  0  0  0
M  END
> <CAS>
55-22-1

> <NAME>
ISONICOTINIC ACID

> <preferred_name>
Isonicotinic acid

> <iupac>
pyridine-4-carboxylic acid

> <SMILES>
OC(=O)c1cc[n]cc1

> <Canonical_QSARr>
OC(=O)c1cc[n]cc1

> <InChI_Code_QSARr>
InChI=1S/C6H5NO2/c8-6(9)5-1-3-7-4-2-5/h1-4H,(H,8,9)

> <InChI Key_QSARr>
TWBYWOBDOCUKOW-UHFFFAOYSA-N

> <Salt_Solvent>
?

> <WS Temperature>
20

> <WS Reference>
MERCK INDEX (1996)

> <dsstox_substance_id>
DTXSID8020757

> <LogMolar>
-1.3743

$$$$
55-80-1
  -INDIGO-01081615412D

 35 36  0  0  0  0  0  0  0  0999 V2000
    2.3999    1.3856    0.0000 C   0  0  0  0  0  0  0  0  0  0  0  0
    1.6001    0.0000    0.0000 N   0  0  0  0  0  0  0  0  0  0  0  0
    2.4001   -1.3856    0.0000 C   0  0  0  0  0  0  0  0  0  0  0  0
    3.1999   -2.7713    0.0000 H   0  0  0  0  0  0  0  0  0  0  0  0
    4.0000   -1.3856    0.0000 H   0  0  0  0  0  0  0  0  0  0  0  0
    1.6001   -2.7713    0.0000 H   0  0  0  0  0  0  0  0  0  0  0  0
   -0.0001    0.0000    0.0000 C   0  0  0  0  0  0  0  0  0  0  0  0
   -0.7999    1.3856    0.0000 C   0  0  0  0  0  0  0  0  0  0  0  0
   -0.0001    2.7713    0.0000 H   0  0  0  0  0  0  0  0  0  0  0  0
   -2.4000    1.3856    0.0000 C   0  0  0  0  0  0  0  0  0  0  0  0
   -3.2001    2.7713    0.0000 H   0  0  0  0  0  0  0  0  0  0  0  0
   -3.2001    0.0000    0.0000 C   0  0  0  0  0  0  0  0  0  0  0  0
   -4.7999    0.0000    0.0000 N   0  0  0  0  0  0  0  0  0  0  0  0
   -5.6000    1.3856    0.0000 N   0  0  0  0  0  0  0  0  0  0  0  0
   -7.1999    1.3856    0.0000 C   0  0  0  0  0  0  0  0  0  0  0  0
   -7.9999    2.7713    0.0000 C   0  0  0  0  0  0  0  0  0  0  0  0
   -7.1999    4.1569    0.0000 H   0  0  0  0  0  0  0  0  0  0  0  0
   -9.6001    2.7713    0.0000 C   0  0  0  0  0  0  0  0  0  0  0  0
  -10.3999    4.1569    0.0000 H   0  0  0  0  0  0  0  0  0  0  0  0
  -10.3999    1.3856    0.0000 C   0  0  0  0  0  0  0  0  0  0  0  0
  -12.0000    1.3856    0.0000 H   0  0  0  0  0  0  0  0  0  0  0  0
   -9.6001    0.0000    0.0000 C   0  0  0  0  0  0  0  0  0  0  0  0
  -10.3999   -1.3856    0.0000 C   0  0  0  0  0  0  0  0  0  0  0  0
  -11.1999   -2.7713    0.0000 H   0  0  0  0  0  0  0  0  0  0  0  0
  -12.0000   -1.3856    0.0000 H   0  0  0  0  0  0  0  0  0  0  0  0
   -9.6001   -2.7713    0.0000 H   0  0  0  0  0  0  0  0  0  0  0  0
   -7.9999    0.0000    0.0000 C   0  0  0  0  0  0  0  0  0  0  0  0
   -7.2001   -1.3856    0.0000 H   0  0  0  0  0  0  0  0  0  0  0  0
   -2.4000   -1.3856    0.0000 C   0  0  0  0  0  0  0  0  0  0  0  0
   -3.2001   -2.7713    0.0000 H   0  0  0  0  0  0  0  0  0  0  0  0
   -0.7999   -1.3856    0.0000 C   0  0  0  0  0  0  0  0  0  0  0  0
   -0.0001   -2.7713    0.0000 H   0  0  0  0  0  0  0  0  0  0  0  0
    3.1999    2.7713    0.0000 H   0  0  0  0  0  0  0  0  0  0  0  0
    4.0000    1.3856    0.0000 H   0  0  0  0  0  0  0  0  0  0  0  0
    1.6001    2.7713    0.0000 H   0  0  0  0  0  0  0  0  0  0  0  0
  1  2  1  0  0  0  0
  2  3  1  0  0  0  0
  3  4  1  0  0  0  0
  3  5  1  0  0  0  0
  3  6  1  0  0  0  0
  2  7  1  0  0  0  0
  7  8  4  0  0  0  0
  8  9  1  0  0  0  0
  8 10  4  0  0  0  0
 10 11  1  0  0  0  0
 10 12  4  0  0  0  0
 12 13  1  0  0  0  0
 13 14  2  0  0  0  0
 14 15  1  0  0  0  0
 15 16  4  0  0  0  0
 16 17  1  0  0  0  0
 16 18  4  0  0  0  0
 18 19  1  0  0  0  0
 18 20  4  0  0  0  0
 20 21  1  0  0  0  0
 20 22  4  0  0  0  0
 22 23  1  0  0  0  0
 23 24  1  0  0  0  0
 23 25  1  0  0  0  0
 23 26  1  0  0  0  0
 22 27  4  0  0  0  0
 27 15  4  0  0  0  0
 27 28  1  0  0  0  0
 12 29  4  0  0  0  0
 29 30  1  0  0  0  0
 29 31  4  0  0  0  0
 31  7  4  0  0  0  0
 31 32  1  0  0  0  0
  1 33  1  0  0  0  0
  1 34  1  0  0  0  0
  1 35  1  0  0  0  0
M  END
> <CAS>
55-80-1

> <NAME>
4-DIMETHYLAMINO-3'-METHYLAZOBENZENE

> <preferred_name>
3'-Methyl-4-dimethylaminoazobenzene

> <iupac>
N,N-dimethyl-4-[(3-methylphenyl)diazenyl]aniline

> <SMILES>
Cc1cc(ccc1)N=Nc1ccc(cc1)N(C)C

> <Canonical_QSARr>
Cc1cc(ccc1)N=Nc1ccc(cc1)N(C)C

> <InChI_Code_QSARr>
InChI=1S/C15H17N3/c1-12-5-4-6-14(11-12)17-16-13-7-9-15(10-8-13)18(2)3/h4-11H,1-3H3/b17-16+

> <InChI Key_QSARr>
LVTFSVIRYMXRSR-WUKNDPDISA-N

> <Salt_Solvent>
?

> <WS Temperature>
25

> <WS Reference>
TAKAGISHI,T ET AL. (1969)

> <dsstox_substance_id>
DTXSID8020838

> <LogMolar>
-5.7769

$$$$
56-23-5
  -INDIGO-01081615412D

  5  4  0  0  0  0  0  0  0  0999 V2000
    1.3856   -0.8000    0.0000 Cl  0  0  0  0  0  0  0  0  0  0  0  0
    0.0000    0.0000    0.0000 C   0  0  0  0  0  0  0  0  0  0  0  0
   -1.3856    0.8000    0.0000 Cl  0  0  0  0  0  0  0  0  0  0  0  0
   -0.0000    1.6000    0.0000 Cl  0  0  0  0  0  0  0  0  0  0  0  0
   -1.3856   -0.8000    0.0000 Cl  0  0  0  0  0  0  0  0  0  0  0  0
  1  2  1  0  0  0  0
  2  3  1  0  0  0  0
  2  4  1  0  0  0  0
  2  5  1  0  0  0  0
M  END
> <CAS>
56-23-5

> <NAME>
CARBON TETRACHLORIDE

> <preferred_name>
Carbon tetrachloride

> <iupac>
tetrachloromethane

> <SMILES>
ClC(Cl)(Cl)Cl

> <Canonical_QSARr>
ClC(Cl)(Cl)Cl

> <InChI_Code_QSARr>
InChI=1S/CCl4/c2-1(3,4)5

> <InChI Key_QSARr>
VZGDMQKNWNREIO-UHFFFAOYSA-N

> <Salt_Solvent>
?

> <WS Temperature>
25

> <WS Reference>
HORVATH,AL (1982)

> <dsstox_substance_id>
DTXSID8020250

> <LogMolar>
-2.2877

$$$$
56-40-6
  -INDIGO-01081615412D

 10  9  0  0  0  0  0  0  0  0999 V2000
    1.6000    0.0000    0.0000 C   0  0  0  0  0  0  0  0  0  0  0  0
    0.0000    0.0000    0.0000 C   0  0  0  0  0  0  0  0  0  0  0  0
   -1.6000   -0.0000    0.0000 N   0  0  0  0  0  0  0  0  0  0  0  0
   -2.4000   -1.3856    0.0000 H   0  0  0  0  0  0  0  0  0  0  0  0
   -2.4000    1.3856    0.0000 H   0  0  0  0  0  0  0  0  0  0  0  0
    0.0000    1.6000    0.0000 H   0  0  0  0  0  0  0  0  0  0  0  0
    0.0000   -1.6000    0.0000 H   0  0  0  0  0  0  0  0  0  0  0  0
    2.4000    1.3856    0.0000 O   0  0  0  0  0  0  0  0  0  0  0  0
    4.0000    1.3856    0.0000 H   0  0  0  0  0  0  0  0  0  0  0  0
    2.4000   -1.3856    0.0000 O   0  0  0  0  0  0  0  0  0  0  0  0
  1  2  1  0  0  0  0
  2  3  1  0  0  0  0
  3  4  1  0  0  0  0
  3  5  1  0  0  0  0
  2  6  1  0  0  0  0
  2  7  1  0  0  0  0
  1  8  1  0  0  0  0
  8  9  1  0  0  0  0
  1 10  2  0  0  0  0
M  END
> <CAS>
56-40-6

> <NAME>
GLYCINE

> <preferred_name>
Glycine

> <iupac>
glycine

> <SMILES>
NCC(O)=O

> <Canonical_QSARr>
NCC(O)=O

> <InChI_Code_QSARr>
InChI=1S/C2H5NO2/c3-1-2(4)5/h1,3H2,(H,4,5)

> <InChI Key_QSARr>
DHMQDGOQFOQNFH-UHFFFAOYSA-N

> <Salt_Solvent>
?

> <WS Temperature>
25

> <WS Reference>
YALKOWSKY,SH & DANNENFELSER,RM (1992)

> <dsstox_substance_id>
DTXSID9020667

> <LogMolar>
0.5207

$$$$
56-49-5
  -INDIGO-01081615412D

 37 41  0  0  0  0  0  0  0  0999 V2000
    4.8001    2.7713    0.0000 C   0  0  0  0  0  0  0  0  0  0  0  0
    3.2000    2.7713    0.0000 C   0  0  0  0  0  0  0  0  0  0  0  0
    2.4000    4.1569    0.0000 C   0  0  0  0  0  0  0  0  0  0  0  0
    3.2000    5.5426    0.0000 H   0  0  0  0  0  0  0  0  0  0  0  0
    0.8001    4.1570    0.0000 C   0  0  0  0  0  0  0  0  0  0  0  0
   -0.0001    5.5426    0.0000 H   0  0  0  0  0  0  0  0  0  0  0  0
   -0.0001    2.7713    0.0000 C   0  0  0  0  0  0  0  0  0  0  0  0
    0.8001    1.3857    0.0000 C   0  0  0  0  0  0  0  0  0  0  0  0
   -0.0001    0.0000    0.0000 C   0  0  0  0  0  0  0  0  0  0  0  0
   -1.6000    0.0000    0.0000 C   0  0  0  0  0  0  0  0  0  0  0  0
   -2.3999   -1.3856    0.0000 C   0  0  0  0  0  0  0  0  0  0  0  0
   -1.6000   -2.7713    0.0000 H   0  0  0  0  0  0  0  0  0  0  0  0
   -4.0001   -1.3856    0.0000 C   0  0  0  0  0  0  0  0  0  0  0  0
   -4.8000   -2.7713    0.0000 H   0  0  0  0  0  0  0  0  0  0  0  0
   -4.8000    0.0000    0.0000 C   0  0  0  0  0  0  0  0  0  0  0  0
   -6.3999    0.0000    0.0000 C   0  0  0  0  0  0  0  0  0  0  0  0
   -7.2001    1.3856    0.0000 C   0  0  0  0  0  0  0  0  0  0  0  0
   -6.3999    2.7713    0.0000 C   0  0  0  0  0  0  0  0  0  0  0  0
   -4.8000    2.7713    0.0000 C   0  0  0  0  0  0  0  0  0  0  0  0
   -4.0001    4.1569    0.0000 H   0  0  0  0  0  0  0  0  0  0  0  0
   -4.0001    1.3856    0.0000 C   0  0  0  0  0  0  0  0  0  0  0  0
   -2.3999    1.3857    0.0000 C   0  0  0  0  0  0  0  0  0  0  0  0
   -1.6000    2.7713    0.0000 C   0  0  0  0  0  0  0  0  0  0  0  0
   -2.3999    4.1570    0.0000 H   0  0  0  0  0  0  0  0  0  0  0  0
   -7.2001    4.1569    0.0000 H   0  0  0  0  0  0  0  0  0  0  0  0
   -8.8000    1.3856    0.0000 H   0  0  0  0  0  0  0  0  0  0  0  0
   -7.2001   -1.3857    0.0000 H   0  0  0  0  0  0  0  0  0  0  0  0
    1.2517   -0.9966    0.0000 C   0  0  0  0  0  0  0  0  0  0  0  0
    2.6373   -0.1966    0.0000 C   0  0  0  0  0  0  0  0  0  0  0  0
    3.2584   -1.6711    0.0000 H   0  0  0  0  0  0  0  0  0  0  0  0
    4.1778    0.2360    0.0000 H   0  0  0  0  0  0  0  0  0  0  0  0
    2.4000    1.3857    0.0000 C   0  0  0  0  0  0  0  0  0  0  0  0
    0.1068   -2.1144    0.0000 H   0  0  0  0  0  0  0  0  0  0  0  0
    2.2182   -2.2718    0.0000 H   0  0  0  0  0  0  0  0  0  0  0  0
    6.4000    2.7713    0.0000 H   0  0  0  0  0  0  0  0  0  0  0  0
    5.6000    4.1570    0.0000 H   0  0  0  0  0  0  0  0  0  0  0  0
    5.6000    1.3857    0.0000 H   0  0  0  0  0  0  0  0  0  0  0  0
  1  2  1  0  0  0  0
  2  3  4  0  0  0  0
  3  4  1  0  0  0  0
  3  5  4  0  0  0  0
  5  6  1  0  0  0  0
  5  7  4  0  0  0  0
  7  8  4  0  0  0  0
  8  9  4  0  0  0  0
  9 10  4  0  0  0  0
 10 11  4  0  0  0  0
 11 12  1  0  0  0  0
 11 13  4  0  0  0  0
 13 14  1  0  0  0  0
 13 15  4  0  0  0  0
 15 16  4  0  0  0  0
 16 17  4  0  0  0  0
 17 18  4  0  0  0  0
 18 19  4  0  0  0  0
 19 20  1  0  0  0  0
 19 21  4  0  0  0  0
 21 15  4  0  0  0  0
 21 22  4  0  0  0  0
 22 10  4  0  0  0  0
 22 23  4  0  0  0  0
 23  7  4  0  0  0  0
 23 24  1  0  0  0  0
 18 25  1  0  0  0  0
 17 26  1  0  0  0  0
 16 27  1  0  0  0  0
  9 28  1  0  0  0  0
 28 29  1  0  0  0  0
 29 30  1  0  0  0  0
 29 31  1  0  0  0  0
 29 32  1  0  0  0  0
 32  2  4  0  0  0  0
 32  8  4  0  0  0  0
 28 33  1  0  0  0  0
 28 34  1  0  0  0  0
  1 35  1  0  0  0  0
  1 36  1  0  0  0  0
  1 37  1  0  0  0  0
M  END
> <CAS>
56-49-5

> <NAME>
3-METHYLCHOLANTHRENE

> <preferred_name>
3-Methylcholanthrene

> <iupac>
3-methyl-1,2-dihydrocyclopenta[ij]tetraphene

> <SMILES>
Cc1ccc2cc3c(ccc4ccccc43)c3CCc1c32

> <Canonical_QSARr>
Cc1ccc2cc3c(ccc4ccccc43)c3CCc1c32

> <InChI_Code_QSARr>
InChI=1S/C21H16/c1-13-6-7-15-12-20-17-5-3-2-4-14(17)8-9-18(20)19-11-10-16(13)21(15)19/h2-9,12H,10-11H2,1H3

> <InChI Key_QSARr>
PPQNQXQZIWHJRB-UHFFFAOYSA-N

> <Salt_Solvent>
?

> <WS Temperature>
25

> <WS Reference>
MACKAY,D & SHIU,WY (1977)

> <dsstox_substance_id>
DTXSID0020862

> <LogMolar>
-7.9663

$$$$
56-65-5
  -INDIGO-01081615412D

 47 49  0  0  0  0  0  0  0  0999 V2000
    1.4835    0.5994    0.0000 N   0  0  0  1  0  0  0  0  0  0  0  0
    0.0002    0.0001    0.0000 C   0  0  0  0  0  0  0  0  0  0  0  0
   -0.7014    1.4381    0.0000 C   0  0  0  0  0  0  0  0  0  0  0  0
   -1.0884    2.9906    0.0000 O   0  0  0  0  0  0  0  0  0  0  0  0
    0.0623    4.1020    0.0000 H   0  0  0  0  0  0  0  0  0  0  0  0
    0.8021    1.9853    0.0000 H   0  0  0  0  0  0  0  0  0  0  0  0
   -2.2858    1.2153    0.0000 C   0  0  0  0  0  0  0  0  0  0  0  0
   -2.3418    2.8144    0.0000 O   0  0  0  0  0  0  0  0  0  0  0  0
   -3.7544    3.5656    0.0000 H   0  0  0  0  0  0  0  0  0  0  0  0
   -3.8238    0.7745    0.0000 H   0  0  0  0  0  0  0  0  0  0  0  0
   -2.5635   -0.3603    0.0000 C   0  0  0  0  0  0  0  0  0  0  0  0
   -4.1598   -0.4719    0.0000 C   0  0  0  0  0  0  0  0  0  0  0  0
   -5.7557   -0.5835    0.0000 O   0  0  0  0  0  0  0  0  0  0  0  0
   -6.4573   -2.0217    0.0000 P   0  0  0  0  0  0  0  0  0  0  0  0
   -7.8953   -1.3202    0.0000 O   0  0  0  0  0  0  0  0  0  0  0  0
   -8.0068    0.2759    0.0000 H   0  0  0  0  0  0  0  0  0  0  0  0
   -5.0193   -2.7231    0.0000 O   0  0  0  0  0  0  0  0  0  0  0  0
   -7.1585   -3.4597    0.0000 O   0  0  0  0  0  0  0  0  0  0  0  0
   -8.7548   -3.5713    0.0000 P   0  0  0  0  0  0  0  0  0  0  0  0
   -8.6432   -5.1674    0.0000 O   0  0  0  0  0  0  0  0  0  0  0  0
   -7.2049   -5.8688    0.0000 H   0  0  0  0  0  0  0  0  0  0  0  0
   -8.8663   -1.9751    0.0000 O   0  0  0  0  0  0  0  0  0  0  0  0
  -10.3507   -3.6829    0.0000 O   0  0  0  0  0  0  0  0  0  0  0  0
  -11.0523   -5.1210    0.0000 P   0  0  0  0  0  0  0  0  0  0  0  0
  -11.7535   -6.5590    0.0000 O   0  0  0  0  0  0  0  0  0  0  0  0
  -13.3497   -6.6707    0.0000 H   0  0  0  0  0  0  0  0  0  0  0  0
   -9.6143   -5.8223    0.0000 O   0  0  0  0  0  0  0  0  0  0  0  0
  -12.4902   -4.4196    0.0000 O   0  0  0  0  0  0  0  0  0  0  0  0
  -12.6018   -2.8235    0.0000 H   0  0  0  0  0  0  0  0  0  0  0  0
   -4.0482   -2.0680    0.0000 H   0  0  0  0  0  0  0  0  0  0  0  0
   -5.0545    0.8545    0.0000 H   0  0  0  0  0  0  0  0  0  0  0  0
   -3.1631   -1.8438    0.0000 H   0  0  0  0  0  0  0  0  0  0  0  0
   -1.1509   -1.1115    0.0000 O   0  0  0  0  0  0  0  0  0  0  0  0
    0.9850   -1.2607    0.0000 H   0  0  0  0  0  0  0  0  0  0  0  0
    2.1344    2.0611    0.0000 C   0  0  0  0  0  0  0  0  0  0  0  0
    1.3342    3.4466    0.0000 H   0  0  0  0  0  0  0  0  0  0  0  0
    3.7254    1.8939    0.0000 N   0  0  0  1  0  0  0  0  0  0  0  0
    4.0581    0.3288    0.0000 C   0  0  0  0  0  0  0  0  0  0  0  0
    5.4438   -0.4712    0.0000 C   0  0  0  0  0  0  0  0  0  0  0  0
    5.4438   -2.0713    0.0000 N   0  0  0  1  0  0  0  0  0  0  0  0
    4.0581   -2.8712    0.0000 C   0  0  0  0  0  0  0  0  0  0  0  0
    2.6724   -2.0713    0.0000 N   0  0  0  1  0  0  0  0  0  0  0  0
    2.6724   -0.4712    0.0000 C   0  0  0  0  0  0  0  0  0  0  0  0
    4.0581   -4.4712    0.0000 H   0  0  0  0  0  0  0  0  0  0  0  0
    6.8294    0.3288    0.0000 N   0  0  0  0  0  0  0  0  0  0  0  0
    8.2151   -0.4712    0.0000 H   0  0  0  0  0  0  0  0  0  0  0  0
    6.8294    1.9287    0.0000 H   0  0  0  0  0  0  0  0  0  0  0  0
  1  2  1  0  0  0  0
  2  3  1  0  0  0  0
  3  4  1  0  0  0  0
  4  5  1  0  0  0  0
  3  6  1  0  0  0  0
  3  7  1  0  0  0  0
  7  8  1  0  0  0  0
  8  9  1  0  0  0  0
  7 10  1  0  0  0  0
  7 11  1  0  0  0  0
 11 12  1  0  0  0  0
 12 13  1  0  0  0  0
 13 14  1  0  0  0  0
 14 15  1  0  0  0  0
 15 16  1  0  0  0  0
 14 17  2  0  0  0  0
 14 18  1  0  0  0  0
 18 19  1  0  0  0  0
 19 20  1  0  0  0  0
 20 21  1  0  0  0  0
 19 22  2  0  0  0  0
 19 23  1  0  0  0  0
 23 24  1  0  0  0  0
 24 25  1  0  0  0  0
 25 26  1  0  0  0  0
 24 27  2  0  0  0  0
 24 28  1  0  0  0  0
 28 29  1  0  0  0  0
 12 30  1  0  0  0  0
 12 31  1  0  0  0  0
 11 32  1  0  0  0  0
 11 33  1  0  0  0  0
 33  2  1  0  0  0  0
  2 34  1  0  0  0  0
  1 35  4  0  0  0  0
 35 36  1  0  0  0  0
 35 37  4  0  0  0  0
 37 38  4  0  0  0  0
 38 39  4  0  0  0  0
 39 40  4  0  0  0  0
 40 41  4  0  0  0  0
 41 42  4  0  0  0  0
 42 43  4  0  0  0  0
 43  1  4  0  0  0  0
 43 38  4  0  0  0  0
 41 44  1  0  0  0  0
 39 45  1  0  0  0  0
 45 46  1  0  0  0  0
 45 47  1  0  0  0  0
M  END
> <CAS>
56-65-5

> <NAME>
Adenosine Triphosphate

> <preferred_name>
Adenosine triphosphate

> <iupac>
adenosine 5'-(tetrahydrogen triphosphate)

> <SMILES>
Nc1[n]c[n]c2c1[n]c[n]2[C@@H]1O[C@H](COP(O)(=O)OP(O)(=O)OP(O)(O)=O)[C@@H](O)[C@H]1O

> <Canonical_QSARr>
Nc1[n]c[n]c2c1[n]c[n]2C1OC(COP(O)(=O)OP(O)(=O)OP(O)(O)=O)C(O)C1O

> <InChI_Code_QSARr>
InChI=1S/C10H16N5O13P3/c11-8-5-9(13-2-12-8)15(3-14-5)10-7(17)6(16)4(26-10)1-25-30(21,22)28-31(23,24)27-29(18,19)20/h2-4,6-7,10,16-17H,1H2,(H,21,22)(H,23,24)(H2,11,12,13)(H2,18,19,20)

> <InChI Key_QSARr>
ZKHQWZAMYRWXGA-UHFFFAOYSA-N

> <Salt_Solvent>
?

> <WS Temperature>


> <WS Reference>
MERCK INDEX (1996); freely soluble

> <dsstox_substance_id>
DTXSID6022559

> <LogMolar>
0.2948

$$$$
56-81-5
  -INDIGO-01081615412D

 14 13  0  0  0  0  0  0  0  0999 V2000
   -0.0000   -0.0000    0.0000 C   0  0  0  0  0  0  0  0  0  0  0  0
   -1.6000   -0.0000    0.0000 C   0  0  0  0  0  0  0  0  0  0  0  0
   -3.2000   -0.0000    0.0000 O   0  0  0  0  0  0  0  0  0  0  0  0
   -4.0000   -1.3857    0.0000 H   0  0  0  0  0  0  0  0  0  0  0  0
   -1.6000   -1.6000    0.0000 H   0  0  0  0  0  0  0  0  0  0  0  0
   -1.6000    1.6000    0.0000 H   0  0  0  0  0  0  0  0  0  0  0  0
    1.5756   -0.2778    0.0000 C   0  0  0  0  0  0  0  0  0  0  0  0
    3.1514   -0.5556    0.0000 O   0  0  0  0  0  0  0  0  0  0  0  0
    3.6986   -2.0592    0.0000 H   0  0  0  0  0  0  0  0  0  0  0  0
    1.2978   -1.8535    0.0000 H   0  0  0  0  0  0  0  0  0  0  0  0
    1.8536    1.2979    0.0000 H   0  0  0  0  0  0  0  0  0  0  0  0
   -0.0000    1.6000    0.0000 O   0  0  0  0  0  0  0  0  0  0  0  0
    1.2257    2.6285    0.0000 H   0  0  0  0  0  0  0  0  0  0  0  0
   -0.0000   -1.6000    0.0000 H   0  0  0  0  0  0  0  0  0  0  0  0
  1  2  1  0  0  0  0
  2  3  1  0  0  0  0
  3  4  1  0  0  0  0
  2  5  1  0  0  0  0
  2  6  1  0  0  0  0
  1  7  1  0  0  0  0
  7  8  1  0  0  0  0
  8  9  1  0  0  0  0
  7 10  1  0  0  0  0
  7 11  1  0  0  0  0
  1 12  1  0  0  0  0
 12 13  1  0  0  0  0
  1 14  1  0  0  0  0
M  END
> <CAS>
56-81-5

> <NAME>
GLYCEROL

> <preferred_name>
Glycerol

> <iupac>
propane-1,2,3-triol

> <SMILES>
OC(CO)CO

> <Canonical_QSARr>
OC(CO)CO

> <InChI_Code_QSARr>
InChI=1S/C3H8O3/c4-1-3(6)2-5/h3-6H,1-2H2

> <InChI Key_QSARr>
PEDCQBHIVMGVHV-UHFFFAOYSA-N

> <Salt_Solvent>
?

> <WS Temperature>
25

> <WS Reference>
YALKOWSKY,SH & DANNENFELSER,RM (1992)

> <dsstox_substance_id>
DTXSID9020663

> <LogMolar>
1.0358

$$$$
56-87-1
  -INDIGO-01081615412D

 24 23  0  0  0  0  0  0  0  0999 V2000
   -3.1758    0.2778    0.0000 C   0  0  0  0  0  0  0  0  0  0  0  0
   -3.7229    1.7814    0.0000 O   0  0  0  0  0  0  0  0  0  0  0  0
   -5.2986    2.0592    0.0000 H   0  0  0  0  0  0  0  0  0  0  0  0
   -1.6000    0.0000    0.0000 C   0  0  0  0  0  0  0  0  0  0  0  0
    0.0001    0.0000    0.0000 C   0  0  0  0  0  0  0  0  0  0  0  0
    1.6000    0.0000    0.0000 C   0  0  0  0  0  0  0  0  0  0  0  0
    3.1999    0.0000    0.0000 C   0  0  0  0  0  0  0  0  0  0  0  0
    4.8000    0.0000    0.0000 C   0  0  0  0  0  0  0  0  0  0  0  0
    6.3999    0.0000    0.0000 N   0  0  0  0  0  0  0  0  0  0  0  0
    7.2000    1.3857    0.0000 H   0  0  0  0  0  0  0  0  0  0  0  0
    7.2000   -1.3857    0.0000 H   0  0  0  0  0  0  0  0  0  0  0  0
    4.8000    1.6000    0.0000 H   0  0  0  0  0  0  0  0  0  0  0  0
    4.8000   -1.6000    0.0000 H   0  0  0  0  0  0  0  0  0  0  0  0
    3.1999    1.6000    0.0000 H   0  0  0  0  0  0  0  0  0  0  0  0
    3.1999   -1.6000    0.0000 H   0  0  0  0  0  0  0  0  0  0  0  0
    1.6000   -1.6000    0.0000 H   0  0  0  0  0  0  0  0  0  0  0  0
    1.6000    1.6000    0.0000 H   0  0  0  0  0  0  0  0  0  0  0  0
    0.0001    1.6000    0.0000 H   0  0  0  0  0  0  0  0  0  0  0  0
    0.0001   -1.6000    0.0000 H   0  0  0  0  0  0  0  0  0  0  0  0
   -1.8779   -1.5757    0.0000 N   0  0  0  0  0  0  0  0  0  0  0  0
   -3.3813   -2.1230    0.0000 H   0  0  0  0  0  0  0  0  0  0  0  0
   -0.8494   -2.8014    0.0000 H   0  0  0  0  0  0  0  0  0  0  0  0
   -1.3222    1.5757    0.0000 H   0  0  0  0  0  0  0  0  0  0  0  0
   -4.2041   -0.9479    0.0000 O   0  0  0  0  0  0  0  0  0  0  0  0
  1  2  1  0  0  0  0
  2  3  1  0  0  0  0
  1  4  1  0  0  0  0
  4  5  1  0  0  0  0
  5  6  1  0  0  0  0
  6  7  1  0  0  0  0
  7  8  1  0  0  0  0
  8  9  1  0  0  0  0
  9 10  1  0  0  0  0
  9 11  1  0  0  0  0
  8 12  1  0  0  0  0
  8 13  1  0  0  0  0
  7 14  1  0  0  0  0
  7 15  1  0  0  0  0
  6 16  1  0  0  0  0
  6 17  1  0  0  0  0
  5 18  1  0  0  0  0
  5 19  1  0  0  0  0
  4 20  1  0  0  0  0
 20 21  1  0  0  0  0
 20 22  1  0  0  0  0
  4 23  1  0  0  0  0
  1 24  2  0  0  0  0
M  END
> <CAS>
56-87-1

> <NAME>
LYSINE

> <preferred_name>
Lysine

> <iupac>
L-lysine

> <SMILES>
NCCCC[C@H](N)C(O)=O

> <Canonical_QSARr>
NCCCCC(N)C(O)=O

> <InChI_Code_QSARr>
InChI=1S/C6H14N2O2/c7-4-2-1-3-5(8)6(9)10/h5H,1-4,7-8H2,(H,9,10)

> <InChI Key_QSARr>
KDXKERNSBIXSRK-UHFFFAOYSA-N

> <Salt_Solvent>
?

> <WS Temperature>
27

> <WS Reference>
YALKOWSKY,SH & HE,Y (2003)

> <dsstox_substance_id>
DTXSID6023232

> <LogMolar>
0.8351

$$$$
57-06-7
  -INDIGO-01081615412D

 11 10  0  0  0  0  0  0  0  0999 V2000
    2.7713   -0.0000    0.0000 C   0  0  0  0  0  0  0  0  0  0  0  0
    1.3856   -0.8000    0.0000 C   0  0  0  0  0  0  0  0  0  0  0  0
    0.0001   -0.0000    0.0000 C   0  0  0  0  0  0  0  0  0  0  0  0
   -1.3856    0.8000    0.0000 N   0  0  0  0  0  0  0  0  0  0  0  0
   -2.7712   -0.0000    0.0000 C   0  0  0  0  0  0  0  0  0  0  0  0
   -4.1569   -0.8000    0.0000 S   0  0  0  0  0  0  0  0  0  0  0  0
    0.8000    1.3856    0.0000 H   0  0  0  0  0  0  0  0  0  0  0  0
   -0.8000   -1.3856    0.0000 H   0  0  0  0  0  0  0  0  0  0  0  0
    1.3856   -2.4000    0.0000 H   0  0  0  0  0  0  0  0  0  0  0  0
    4.1569   -0.8000    0.0000 H   0  0  0  0  0  0  0  0  0  0  0  0
    2.7713    1.6000    0.0000 H   0  0  0  0  0  0  0  0  0  0  0  0
  1  2  2  0  0  0  0
  2  3  1  0  0  0  0
  3  4  1  0  0  0  0
  4  5  2  0  0  0  0
  5  6  2  0  0  0  0
  3  7  1  0  0  0  0
  3  8  1  0  0  0  0
  2  9  1  0  0  0  0
  1 10  1  0  0  0  0
  1 11  1  0  0  0  0
M  END
> <CAS>
57-06-7

> <NAME>
3-ISOTHIOCYANATO-1-PROPENE

> <preferred_name>
Allyl isothiocyanate

> <iupac>
3-isothiocyanatoprop-1-ene

> <SMILES>
C=CCN=C=S

> <Canonical_QSARr>
C=CCN=C=S

> <InChI_Code_QSARr>
InChI=1S/C4H5NS/c1-2-3-5-4-6/h2H,1,3H2

> <InChI Key_QSARr>
ZOJBYZNEUISWFT-UHFFFAOYSA-N

> <Salt_Solvent>
?

> <WS Temperature>
20

> <WS Reference>
YALKOWSKY,SH & DANNENFELSER,RM (1992)

> <dsstox_substance_id>
DTXSID3020047

> <LogMolar>
-1.6953

$$$$
57-14-7
  -INDIGO-01081615412D

 12 11  0  0  0  0  0  0  0  0999 V2000
    1.3856    0.8000    0.0000 C   0  0  0  0  0  0  0  0  0  0  0  0
   -0.0000    0.0000    0.0000 N   0  0  0  0  0  0  0  0  0  0  0  0
    0.0000   -1.6000    0.0000 N   0  0  0  0  0  0  0  0  0  0  0  0
    1.3856   -2.4000    0.0000 H   0  0  0  0  0  0  0  0  0  0  0  0
   -1.3856   -2.4000    0.0000 H   0  0  0  0  0  0  0  0  0  0  0  0
   -1.3856    0.8000    0.0000 C   0  0  0  0  0  0  0  0  0  0  0  0
   -2.7713    1.6000    0.0000 H   0  0  0  0  0  0  0  0  0  0  0  0
   -2.7713    0.0000    0.0000 H   0  0  0  0  0  0  0  0  0  0  0  0
   -1.3856    2.4000    0.0000 H   0  0  0  0  0  0  0  0  0  0  0  0
    2.7713    1.6000    0.0000 H   0  0  0  0  0  0  0  0  0  0  0  0
    2.7713    0.0000    0.0000 H   0  0  0  0  0  0  0  0  0  0  0  0
    1.3856    2.4000    0.0000 H   0  0  0  0  0  0  0  0  0  0  0  0
  1  2  1  0  0  0  0
  2  3  1  0  0  0  0
  3  4  1  0  0  0  0
  3  5  1  0  0  0  0
  2  6  1  0  0  0  0
  6  7  1  0  0  0  0
  6  8  1  0  0  0  0
  6  9  1  0  0  0  0
  1 10  1  0  0  0  0
  1 11  1  0  0  0  0
  1 12  1  0  0  0  0
M  END
> <CAS>
57-14-7

> <NAME>
1,1-DIMETHYLHYDRAZINE

> <preferred_name>
1,1-Dimethylhydrazine

> <iupac>
1,1-dimethylhydrazine

> <SMILES>
CN(C)N

> <Canonical_QSARr>
CN(C)N

> <InChI_Code_QSARr>
InChI=1S/C2H8N2/c1-4(2)3/h3H2,1-2H3

> <InChI Key_QSARr>
RHUYHJGZWVXEHW-UHFFFAOYSA-N

> <Salt_Solvent>
?

> <WS Temperature>


> <WS Reference>
MERCK INDEX (1996)

> <dsstox_substance_id>
DTXSID1020516

> <LogMolar>
1.2211

$$$$
57-41-0
  -INDIGO-01081615412D

 31 33  0  0  0  0  0  0  0  0999 V2000
    2.8473    0.1492    0.0000 O   0  0  0  0  0  0  0  0  0  0  0  0
    1.3857    0.8000    0.0000 C   0  0  0  0  0  0  0  0  0  0  0  0
    1.0530    2.3650    0.0000 N   0  0  0  0  0  0  0  0  0  0  0  0
    2.1237    3.5541    0.0000 H   0  0  0  0  0  0  0  0  0  0  0  0
   -0.5382    2.5323    0.0000 C   0  0  0  0  0  0  0  0  0  0  0  0
   -1.3382    3.9179    0.0000 O   0  0  0  0  0  0  0  0  0  0  0  0
   -1.1890    1.0706    0.0000 N   0  0  0  0  0  0  0  0  0  0  0  0
   -2.7541    0.7379    0.0000 H   0  0  0  0  0  0  0  0  0  0  0  0
   -0.0000    0.0000    0.0000 C   0  0  0  0  0  0  0  0  0  0  0  0
   -1.1890   -1.0706    0.0000 C   0  0  0  0  0  0  0  0  0  0  0  0
   -2.7107   -0.5762    0.0000 C   0  0  0  0  0  0  0  0  0  0  0  0
   -3.7813    0.6129    0.0000 H   0  0  0  0  0  0  0  0  0  0  0  0
   -3.8997   -1.6468    0.0000 C   0  0  0  0  0  0  0  0  0  0  0  0
   -5.4214   -1.1523    0.0000 H   0  0  0  0  0  0  0  0  0  0  0  0
   -3.5671   -3.2118    0.0000 C   0  0  0  0  0  0  0  0  0  0  0  0
   -4.7561   -4.2825    0.0000 H   0  0  0  0  0  0  0  0  0  0  0  0
   -2.0454   -3.7062    0.0000 C   0  0  0  0  0  0  0  0  0  0  0  0
   -1.7128   -5.2712    0.0000 H   0  0  0  0  0  0  0  0  0  0  0  0
   -0.8564   -2.6356    0.0000 C   0  0  0  0  0  0  0  0  0  0  0  0
    0.6653   -3.1300    0.0000 H   0  0  0  0  0  0  0  0  0  0  0  0
    0.9405   -1.2945    0.0000 C   0  0  0  0  0  0  0  0  0  0  0  0
    2.5365   -1.4061    0.0000 C   0  0  0  0  0  0  0  0  0  0  0  0
    3.8310   -0.4656    0.0000 H   0  0  0  0  0  0  0  0  0  0  0  0
    3.2380   -2.8441    0.0000 C   0  0  0  0  0  0  0  0  0  0  0  0
    4.8341   -2.9557    0.0000 H   0  0  0  0  0  0  0  0  0  0  0  0
    2.3432   -4.1705    0.0000 C   0  0  0  0  0  0  0  0  0  0  0  0
    3.0446   -5.6086    0.0000 H   0  0  0  0  0  0  0  0  0  0  0  0
    0.7472   -4.0589    0.0000 C   0  0  0  0  0  0  0  0  0  0  0  0
   -0.1476   -5.3854    0.0000 H   0  0  0  0  0  0  0  0  0  0  0  0
    0.0458   -2.6209    0.0000 C   0  0  0  0  0  0  0  0  0  0  0  0
   -1.5067   -2.2338    0.0000 H   0  0  0  0  0  0  0  0  0  0  0  0
  1  2  2  0  0  0  0
  2  3  1  0  0  0  0
  3  4  1  0  0  0  0
  3  5  1  0  0  0  0
  5  6  2  0  0  0  0
  5  7  1  0  0  0  0
  7  8  1  0  0  0  0
  7  9  1  0  0  0  0
  9  2  1  0  0  0  0
  9 10  1  0  0  0  0
 10 11  4  0  0  0  0
 11 12  1  0  0  0  0
 11 13  4  0  0  0  0
 13 14  1  0  0  0  0
 13 15  4  0  0  0  0
 15 16  1  0  0  0  0
 15 17  4  0  0  0  0
 17 18  1  0  0  0  0
 17 19  4  0  0  0  0
 19 10  4  0  0  0  0
 19 20  1  0  0  0  0
  9 21  1  0  0  0  0
 21 22  4  0  0  0  0
 22 23  1  0  0  0  0
 22 24  4  0  0  0  0
 24 25  1  0  0  0  0
 24 26  4  0  0  0  0
 26 27  1  0  0  0  0
 26 28  4  0  0  0  0
 28 29  1  0  0  0  0
 28 30  4  0  0  0  0
 30 21  4  0  0  0  0
 30 31  1  0  0  0  0
M  END
> <CAS>
57-41-0

> <NAME>
PHENYTOIN

> <preferred_name>
5,5-Diphenylhydantoin

> <iupac>
5,5-diphenylimidazolidine-2,4-dione

> <SMILES>
O=C1NC(=O)C(N1)(c1ccccc1)c1ccccc1

> <Canonical_QSARr>
O=C1NC(=O)C(N1)(c1ccccc1)c1ccccc1

> <InChI_Code_QSARr>
InChI=1S/C15H12N2O2/c18-13-15(17-14(19)16-13,11-7-3-1-4-8-11)12-9-5-2-6-10-12/h1-10H,(H2,16,17,18,19)

> <InChI Key_QSARr>
CXOFVDLJLONNDW-UHFFFAOYSA-N

> <Salt_Solvent>
?

> <WS Temperature>
22

> <WS Reference>
YALKOWSKY,SH & DANNENFELSER,RM (1992)

> <dsstox_substance_id>
DTXSID8020541

> <LogMolar>
-3.8967

$$$$
57-50-1
  -INDIGO-01081615412D

 45 46  0  0  0  0  0  0  0  0999 V2000
    0.0001   -0.0000    0.0000 C   0  0  0  0  0  0  0  0  0  0  0  0
    0.9405    1.2945    0.0000 C   0  0  0  0  0  0  0  0  0  0  0  0
   -0.3539    2.2348    0.0000 O   0  0  0  0  0  0  0  0  0  0  0  0
   -0.1867    3.8261    0.0000 H   0  0  0  0  0  0  0  0  0  0  0  0
    1.8810    2.5889    0.0000 H   0  0  0  0  0  0  0  0  0  0  0  0
    2.2350    0.3540    0.0000 H   0  0  0  0  0  0  0  0  0  0  0  0
    1.5036   -0.5473    0.0000 O   0  0  0  0  0  0  0  0  0  0  0  0
    3.0792   -0.2694    0.0000 C   0  0  0  0  0  0  0  0  0  0  0  0
    3.0792   -1.8694    0.0000 O   0  0  0  0  0  0  0  0  0  0  0  0
    4.4650   -2.6694    0.0000 C   0  0  0  0  0  0  0  0  0  0  0  0
    3.4364   -3.8950    0.0000 C   0  0  0  0  0  0  0  0  0  0  0  0
    2.4078   -5.1207    0.0000 O   0  0  0  0  0  0  0  0  0  0  0  0
    2.9552   -6.6242    0.0000 H   0  0  0  0  0  0  0  0  0  0  0  0
    4.6621   -4.9236    0.0000 H   0  0  0  0  0  0  0  0  0  0  0  0
    2.2107   -2.8667    0.0000 H   0  0  0  0  0  0  0  0  0  0  0  0
    5.4933   -3.8950    0.0000 H   0  0  0  0  0  0  0  0  0  0  0  0
    5.8504   -1.8694    0.0000 C   0  0  0  0  0  0  0  0  0  0  0  0
    6.3978   -3.3730    0.0000 O   0  0  0  0  0  0  0  0  0  0  0  0
    7.9734   -3.6508    0.0000 H   0  0  0  0  0  0  0  0  0  0  0  0
    7.4261   -1.5916    0.0000 H   0  0  0  0  0  0  0  0  0  0  0  0
    5.8504   -0.2694    0.0000 C   0  0  0  0  0  0  0  0  0  0  0  0
    6.3978    1.2341    0.0000 O   0  0  0  0  0  0  0  0  0  0  0  0
    7.9734    1.5120    0.0000 H   0  0  0  0  0  0  0  0  0  0  0  0
    7.4261   -0.5473    0.0000 H   0  0  0  0  0  0  0  0  0  0  0  0
    4.4650    0.5307    0.0000 C   0  0  0  0  0  0  0  0  0  0  0  0
    3.6648    1.9162    0.0000 O   0  0  0  0  0  0  0  0  0  0  0  0
    4.4650    3.3020    0.0000 H   0  0  0  0  0  0  0  0  0  0  0  0
    5.4933    1.7563    0.0000 H   0  0  0  0  0  0  0  0  0  0  0  0
    2.5319    1.2341    0.0000 H   0  0  0  0  0  0  0  0  0  0  0  0
   -1.1889    1.0706    0.0000 O   0  0  0  0  0  0  0  0  0  0  0  0
   -2.5747    0.2706    0.0000 C   0  0  0  0  0  0  0  0  0  0  0  0
   -3.9873   -0.4805    0.0000 C   0  0  0  0  0  0  0  0  0  0  0  0
   -5.4000   -1.2317    0.0000 O   0  0  0  0  0  0  0  0  0  0  0  0
   -6.7570   -0.3838    0.0000 H   0  0  0  0  0  0  0  0  0  0  0  0
   -4.7385    0.9322    0.0000 H   0  0  0  0  0  0  0  0  0  0  0  0
   -3.2362   -1.8933    0.0000 H   0  0  0  0  0  0  0  0  0  0  0  0
   -3.2254    1.7322    0.0000 H   0  0  0  0  0  0  0  0  0  0  0  0
   -2.2420   -1.2944    0.0000 C   0  0  0  0  0  0  0  0  0  0  0  0
   -3.8332   -1.4617    0.0000 O   0  0  0  0  0  0  0  0  0  0  0  0
   -4.4841   -2.9233    0.0000 H   0  0  0  0  0  0  0  0  0  0  0  0
   -2.2420   -2.8944    0.0000 H   0  0  0  0  0  0  0  0  0  0  0  0
   -0.6508   -1.4617    0.0000 C   0  0  0  0  0  0  0  0  0  0  0  0
   -0.9835   -3.0268    0.0000 O   0  0  0  0  0  0  0  0  0  0  0  0
    0.2055   -4.0972    0.0000 H   0  0  0  0  0  0  0  0  0  0  0  0
    0.8709   -1.9561    0.0000 H   0  0  0  0  0  0  0  0  0  0  0  0
  1  2  1  0  0  0  0
  2  3  1  0  0  0  0
  3  4  1  0  0  0  0
  2  5  1  0  0  0  0
  2  6  1  0  0  0  0
  1  7  1  0  0  0  0
  7  8  1  0  0  0  0
  8  9  1  0  0  0  0
  9 10  1  0  0  0  0
 10 11  1  0  0  0  0
 11 12  1  0  0  0  0
 12 13  1  0  0  0  0
 11 14  1  0  0  0  0
 11 15  1  0  0  0  0
 10 16  1  0  0  0  0
 10 17  1  0  0  0  0
 17 18  1  0  0  0  0
 18 19  1  0  0  0  0
 17 20  1  0  0  0  0
 17 21  1  0  0  0  0
 21 22  1  0  0  0  0
 22 23  1  0  0  0  0
 21 24  1  0  0  0  0
 21 25  1  0  0  0  0
 25  8  1  0  0  0  0
 25 26  1  0  0  0  0
 26 27  1  0  0  0  0
 25 28  1  0  0  0  0
  8 29  1  0  0  0  0
  1 30  1  0  0  0  0
 30 31  1  0  0  0  0
 31 32  1  0  0  0  0
 32 33  1  0  0  0  0
 33 34  1  0  0  0  0
 32 35  1  0  0  0  0
 32 36  1  0  0  0  0
 31 37  1  0  0  0  0
 31 38  1  0  0  0  0
 38 39  1  0  0  0  0
 39 40  1  0  0  0  0
 38 41  1  0  0  0  0
 38 42  1  0  0  0  0
 42  1  1  0  0  0  0
 42 43  1  0  0  0  0
 43 44  1  0  0  0  0
 42 45  1  0  0  0  0
M  END
> <CAS>
57-50-1

> <NAME>
SUCROSE

> <preferred_name>
Sucrose

> <iupac>
beta-D-fructofuranosyl alpha-D-glucopyranoside

> <SMILES>
O[C@H]1[C@H](O[C@H](CO)[C@@H](O)[C@@H]1O)O[C@]1(CO)O[C@H](CO)[C@@H](O)[C@@H]1O

> <Canonical_QSARr>
OC1C(OC(CO)C(O)C1O)OC1(CO)OC(CO)C(O)C1O

> <InChI_Code_QSARr>
InChI=1S/C12H22O11/c13-1-4-6(16)8(18)9(19)11(21-4)23-12(3-15)10(20)7(17)5(2-14)22-12/h4-11,13-20H,1-3H2

> <InChI Key_QSARr>
CZMRCDWAGMRECN-UHFFFAOYSA-N

> <Salt_Solvent>
?

> <WS Temperature>
25

> <WS Reference>
YALKOWSKY,SH & DANNENFELSER,RM (1992)

> <dsstox_substance_id>
DTXSID2021288

> <LogMolar>
0.7878

$$$$
57-62-5
  -INDIGO-01081615412D

 56 59  0  0  0  0  0  0  0  0999 V2000
   -0.0001    1.6000    0.0000 C   0  0  0  0  0  0  0  0  0  0  0  0
   -0.5473    3.1035    0.0000 O   0  0  0  0  0  0  0  0  0  0  0  0
    0.4811    4.3292    0.0000 H   0  0  0  0  0  0  0  0  0  0  0  0
   -1.3856    2.4000    0.0000 C   0  0  0  0  0  0  0  0  0  0  0  0
   -1.3856    4.0000    0.0000 O   0  0  0  0  0  0  0  0  0  0  0  0
   -2.7713    4.8000    0.0000 H   0  0  0  0  0  0  0  0  0  0  0  0
   -2.7713    1.6000    0.0000 C   0  0  0  0  0  0  0  0  0  0  0  0
   -4.1569    2.4000    0.0000 C   0  0  0  0  0  0  0  0  0  0  0  0
   -5.5426    1.6000    0.0000 C   0  0  0  0  0  0  0  0  0  0  0  0
   -5.5426    0.0000    0.0000 C   0  0  0  0  0  0  0  0  0  0  0  0
   -4.1569   -0.8000    0.0000 C   0  0  0  0  0  0  0  0  0  0  0  0
   -5.1853   -2.0256    0.0000 C   0  0  0  0  0  0  0  0  0  0  0  0
   -4.6382   -3.5292    0.0000 H   0  0  0  0  0  0  0  0  0  0  0  0
   -6.2139   -3.2513    0.0000 H   0  0  0  0  0  0  0  0  0  0  0  0
   -6.7611   -1.7478    0.0000 H   0  0  0  0  0  0  0  0  0  0  0  0
   -3.1286   -2.0256    0.0000 O   0  0  0  0  0  0  0  0  0  0  0  0
   -3.6757   -3.5292    0.0000 H   0  0  0  0  0  0  0  0  0  0  0  0
   -2.7713    0.0000    0.0000 C   0  0  0  0  0  0  0  0  0  0  0  0
   -2.2241   -1.5035    0.0000 H   0  0  0  0  0  0  0  0  0  0  0  0
   -1.3856   -0.8000    0.0000 C   0  0  0  0  0  0  0  0  0  0  0  0
   -1.6634   -2.3757    0.0000 H   0  0  0  0  0  0  0  0  0  0  0  0
   -0.8384   -2.3035    0.0000 H   0  0  0  0  0  0  0  0  0  0  0  0
   -0.0001    0.0000    0.0000 C   0  0  0  0  0  0  0  0  0  0  0  0
   -0.0001   -1.6000    0.0000 H   0  0  0  0  0  0  0  0  0  0  0  0
    1.3856   -0.8000    0.0000 C   0  0  0  0  0  0  0  0  0  0  0  0
    2.4142   -2.0256    0.0000 N   0  0  0  0  0  0  0  0  0  0  0  0
    3.9897   -1.7478    0.0000 C   0  0  0  0  0  0  0  0  0  0  0  0
    5.0183   -2.9736    0.0000 H   0  0  0  0  0  0  0  0  0  0  0  0
    5.5655   -1.4701    0.0000 H   0  0  0  0  0  0  0  0  0  0  0  0
    3.4426   -3.2513    0.0000 H   0  0  0  0  0  0  0  0  0  0  0  0
    1.8668   -3.5292    0.0000 C   0  0  0  0  0  0  0  0  0  0  0  0
    2.8954   -4.7548    0.0000 H   0  0  0  0  0  0  0  0  0  0  0  0
    1.3197   -5.0327    0.0000 H   0  0  0  0  0  0  0  0  0  0  0  0
    0.2913   -3.8070    0.0000 H   0  0  0  0  0  0  0  0  0  0  0  0
    0.8384   -2.3035    0.0000 H   0  0  0  0  0  0  0  0  0  0  0  0
    2.7713    0.0000    0.0000 C   0  0  0  0  0  0  0  0  0  0  0  0
    4.1570   -0.8000    0.0000 O   0  0  0  0  0  0  0  0  0  0  0  0
    5.5427    0.0000    0.0000 H   0  0  0  0  0  0  0  0  0  0  0  0
    2.7713    1.6000    0.0000 C   0  0  0  0  0  0  0  0  0  0  0  0
    4.1570    2.4000    0.0000 C   0  0  0  0  0  0  0  0  0  0  0  0
    4.1570    4.0000    0.0000 N   0  0  0  0  0  0  0  0  0  0  0  0
    5.5427    4.8000    0.0000 H   0  0  0  0  0  0  0  0  0  0  0  0
    2.7713    4.8000    0.0000 H   0  0  0  0  0  0  0  0  0  0  0  0
    5.5427    1.6000    0.0000 O   0  0  0  0  0  0  0  0  0  0  0  0
    1.3856    2.4000    0.0000 C   0  0  0  0  0  0  0  0  0  0  0  0
    1.3856    4.0000    0.0000 O   0  0  0  0  0  0  0  0  0  0  0  0
   -6.9281   -0.8000    0.0000 C   0  0  0  0  0  0  0  0  0  0  0  0
   -7.7282   -2.1856    0.0000 Cl  0  0  0  0  0  0  0  0  0  0  0  0
   -8.3138    0.0000    0.0000 C   0  0  0  0  0  0  0  0  0  0  0  0
   -9.6995   -0.8000    0.0000 H   0  0  0  0  0  0  0  0  0  0  0  0
   -8.3138    1.6000    0.0000 C   0  0  0  0  0  0  0  0  0  0  0  0
   -9.6995    2.4000    0.0000 H   0  0  0  0  0  0  0  0  0  0  0  0
   -6.9281    2.4000    0.0000 C   0  0  0  0  0  0  0  0  0  0  0  0
   -6.9281    4.0000    0.0000 O   0  0  0  0  0  0  0  0  0  0  0  0
   -8.3138    4.8000    0.0000 H   0  0  0  0  0  0  0  0  0  0  0  0
   -4.1569    4.0000    0.0000 O   0  0  0  0  0  0  0  0  0  0  0  0
  1  2  1  0  0  0  0
  2  3  1  0  0  0  0
  1  4  1  0  0  0  0
  4  5  1  0  0  0  0
  5  6  1  0  0  0  0
  4  7  2  0  0  0  0
  7  8  1  0  0  0  0
  8  9  1  0  0  0  0
  9 10  4  0  0  0  0
 10 11  1  0  0  0  0
 11 12  1  0  0  0  0
 12 13  1  0  0  0  0
 12 14  1  0  0  0  0
 12 15  1  0  0  0  0
 11 16  1  0  0  0  0
 16 17  1  0  0  0  0
 11 18  1  0  0  0  0
 18  7  1  0  0  0  0
 18 19  1  0  0  0  0
 18 20  1  0  0  0  0
 20 21  1  0  0  0  0
 20 22  1  0  0  0  0
 20 23  1  0  0  0  0
 23  1  1  0  0  0  0
 23 24  1  0  0  0  0
 23 25  1  0  0  0  0
 25 26  1  0  0  0  0
 26 27  1  0  0  0  0
 27 28  1  0  0  0  0
 27 29  1  0  0  0  0
 27 30  1  0  0  0  0
 26 31  1  0  0  0  0
 31 32  1  0  0  0  0
 31 33  1  0  0  0  0
 31 34  1  0  0  0  0
 25 35  1  0  0  0  0
 25 36  1  0  0  0  0
 36 37  1  0  0  0  0
 37 38  1  0  0  0  0
 36 39  2  0  0  0  0
 39 40  1  0  0  0  0
 40 41  1  0  0  0  0
 41 42  1  0  0  0  0
 41 43  1  0  0  0  0
 40 44  2  0  0  0  0
 39 45  1  0  0  0  0
 45  1  1  0  0  0  0
 45 46  2  0  0  0  0
 10 47  4  0  0  0  0
 47 48  1  0  0  0  0
 47 49  4  0  0  0  0
 49 50  1  0  0  0  0
 49 51  4  0  0  0  0
 51 52  1  0  0  0  0
 51 53  4  0  0  0  0
 53  9  4  0  0  0  0
 53 54  1  0  0  0  0
 54 55  1  0  0  0  0
  8 56  2  0  0  0  0
M  END
> <CAS>
57-62-5

> <NAME>
AUREOMYCIN

> <preferred_name>
Chlortetracycline

> <iupac>
(4S,4aS,5aS,6S,12aS)-7-chloro-4-(dimethylamino)-3,6,10,12,12a-pentahydroxy-6-methyl-1,11-dioxo-1,4,4a,5,5a,6,11,12a-octahydrotetracene-2-carboxamide

> <SMILES>
C[C@]1(O)[C@H]2C[C@H]3[C@@H](C(O)=C(C(N)=O)C(=O)[C@@]3(O)C(O)=C2C(=O)c2c1c(Cl)ccc2O)N(C)C

> <Canonical_QSARr>
CC1(O)C2CC3C(C(O)=C(C(N)=O)C(=O)C3(O)C(O)=C2C(=O)c2c1c(Cl)ccc2O)N(C)C

> <InChI_Code_QSARr>
InChI=1S/C22H23ClN2O8/c1-21(32)7-6-8-15(25(2)3)17(28)13(20(24)31)19(30)22(8,33)18(29)11(7)16(27)12-10(26)5-4-9(23)14(12)21/h4-5,7-8,15,26,28-29,32-33H,6H2,1-3H3,(H2,24,31)

> <InChI Key_QSARr>
CYDMQBQPVICBEU-UHFFFAOYSA-N

> <Salt_Solvent>
?

> <WS Temperature>
25

> <WS Reference>
YALKOWSKY,SH & DANNENFELSER,RM (1992)

> <dsstox_substance_id>
DTXSID9022811

> <LogMolar>
-2.8809

$$$$
57-74-9, 5103-71-9, 5103-74-2
  -INDIGO-01081615412D

 24 26  0  0  0  0  0  0  0  0999 V2000
    2.4621   -0.8000    0.0000 C   0  0  0  0  0  0  0  0  0  0  0  0
    3.6512   -1.8706    0.0000 Cl  0  0  0  0  0  0  0  0  0  0  0  0
    1.5216   -2.0945    0.0000 C   0  0  0  0  0  0  0  0  0  0  0  0
    0.8709   -3.5561    0.0000 Cl  0  0  0  0  0  0  0  0  0  0  0  0
    2.9073   -2.8944    0.0000 H   0  0  0  0  0  0  0  0  0  0  0  0
    0.0000   -1.6000    0.0000 C   0  0  0  0  0  0  0  0  0  0  0  0
   -1.5217   -2.0945    0.0000 C   0  0  0  0  0  0  0  0  0  0  0  0
   -1.5217   -3.6944    0.0000 Cl  0  0  0  0  0  0  0  0  0  0  0  0
   -2.4622   -0.8000    0.0000 C   0  0  0  0  0  0  0  0  0  0  0  0
   -3.9456   -0.2006    0.0000 Cl  0  0  0  0  0  0  0  0  0  0  0  0
   -3.9456   -1.3994    0.0000 Cl  0  0  0  0  0  0  0  0  0  0  0  0
   -1.5217    0.4945    0.0000 C   0  0  0  0  0  0  0  0  0  0  0  0
   -1.5217    2.0944    0.0000 Cl  0  0  0  0  0  0  0  0  0  0  0  0
    0.0000   -0.0000    0.0000 C   0  0  0  0  0  0  0  0  0  0  0  0
    0.0000    1.6000    0.0000 H   0  0  0  0  0  0  0  0  0  0  0  0
    1.5216    0.4945    0.0000 C   0  0  0  0  0  0  0  0  0  0  0  0
    2.9073    1.2944    0.0000 H   0  0  0  0  0  0  0  0  0  0  0  0
    1.1346    2.0469    0.0000 H   0  0  0  0  0  0  0  0  0  0  0  0
   -3.0434   -0.0000    0.0000 C   0  0  0  0  0  0  0  0  0  0  0  0
   -4.3378    0.9405    0.0000 Cl  0  0  0  0  0  0  0  0  0  0  0  0
   -3.0434   -1.6000    0.0000 C   0  0  0  0  0  0  0  0  0  0  0  0
   -4.3378   -2.5405    0.0000 Cl  0  0  0  0  0  0  0  0  0  0  0  0
    0.0000   -3.2000    0.0000 H   0  0  0  0  0  0  0  0  0  0  0  0
    3.6512    0.2706    0.0000 H   0  0  0  0  0  0  0  0  0  0  0  0
  1  2  1  0  0  0  0
  1  3  1  0  0  0  0
  3  4  1  0  0  0  0
  3  5  1  0  0  0  0
  3  6  1  0  0  0  0
  6  7  1  0  0  0  0
  7  8  1  0  0  0  0
  7  9  1  0  0  0  0
  9 10  1  0  0  0  0
  9 11  1  0  0  0  0
  9 12  1  0  0  0  0
 12 13  1  0  0  0  0
 12 14  1  0  0  0  0
 14  6  1  0  0  0  0
 14 15  1  0  0  0  0
 14 16  1  0  0  0  0
 16  1  1  0  0  0  0
 16 17  1  0  0  0  0
 16 18  1  0  0  0  0
 12 19  1  0  0  0  0
 19 20  1  0  0  0  0
 19 21  2  0  0  0  0
 21  7  1  0  0  0  0
 21 22  1  0  0  0  0
  6 23  1  0  0  0  0
  1 24  1  0  0  0  0
M  END
> <CAS>
57-74-9, 5103-71-9, 5103-74-2

> <NAME>
CHLORDANE, ALPHA-CHLORDANE, CHLORDANE (TRANS)

> <preferred_name>
Chlordane

> <iupac>
C10H6Cl8

> <SMILES>
ClC1(Cl)C2(Cl)C3CC(Cl)C(Cl)C3C1(Cl)C(Cl)=C2Cl

> <Canonical_QSARr>
ClC1(Cl)C2(Cl)C3CC(Cl)C(Cl)C3C1(Cl)C(Cl)=C2Cl

> <InChI_Code_QSARr>
InChI=1S/C10H6Cl8/c11-3-1-2-4(5(3)12)9(16)7(14)6(13)8(2,15)10(9,17)18/h2-5H,1H2

> <InChI Key_QSARr>
BIWJNBZANLAXMG-UHFFFAOYSA-N

> <Salt_Solvent>
?

> <WS Temperature>
25

> <WS Reference>
SANBORN,JR ET AL. (1976)

> <dsstox_substance_id>
DTXSID7020267

> <LogMolar>
-6.8644

$$$$
57-97-6
  -INDIGO-01081615412D

 36 39  0  0  0  0  0  0  0  0999 V2000
   -0.0000    2.7713    0.0000 C   0  0  0  0  0  0  0  0  0  0  0  0
    0.8000    1.3856    0.0000 C   0  0  0  0  0  0  0  0  0  0  0  0
   -0.0000   -0.0001    0.0000 C   0  0  0  0  0  0  0  0  0  0  0  0
   -1.6000   -0.0001    0.0000 C   0  0  0  0  0  0  0  0  0  0  0  0
   -2.4000    1.3856    0.0000 C   0  0  0  0  0  0  0  0  0  0  0  0
   -1.6000    2.7712    0.0000 H   0  0  0  0  0  0  0  0  0  0  0  0
   -4.0000    1.3856    0.0000 C   0  0  0  0  0  0  0  0  0  0  0  0
   -4.8000    2.7712    0.0000 H   0  0  0  0  0  0  0  0  0  0  0  0
   -4.8000   -0.0001    0.0000 C   0  0  0  0  0  0  0  0  0  0  0  0
   -6.4000   -0.0001    0.0000 H   0  0  0  0  0  0  0  0  0  0  0  0
   -4.0000   -1.3856    0.0000 C   0  0  0  0  0  0  0  0  0  0  0  0
   -4.8000   -2.7713    0.0000 H   0  0  0  0  0  0  0  0  0  0  0  0
   -2.4000   -1.3856    0.0000 C   0  0  0  0  0  0  0  0  0  0  0  0
   -1.6000   -2.7712    0.0000 C   0  0  0  0  0  0  0  0  0  0  0  0
   -0.0000   -2.7712    0.0000 C   0  0  0  0  0  0  0  0  0  0  0  0
    0.8000   -4.1569    0.0000 H   0  0  0  0  0  0  0  0  0  0  0  0
    0.8000   -1.3856    0.0000 C   0  0  0  0  0  0  0  0  0  0  0  0
    2.4000   -1.3856    0.0000 C   0  0  0  0  0  0  0  0  0  0  0  0
    3.2000   -2.7712    0.0000 C   0  0  0  0  0  0  0  0  0  0  0  0
    4.0000   -4.1569    0.0000 H   0  0  0  0  0  0  0  0  0  0  0  0
    4.8000   -2.7712    0.0000 H   0  0  0  0  0  0  0  0  0  0  0  0
    2.4000   -4.1569    0.0000 H   0  0  0  0  0  0  0  0  0  0  0  0
    3.2000    0.0001    0.0000 C   0  0  0  0  0  0  0  0  0  0  0  0
    4.8000    0.0001    0.0000 C   0  0  0  0  0  0  0  0  0  0  0  0
    5.6000    1.3856    0.0000 C   0  0  0  0  0  0  0  0  0  0  0  0
    4.8000    2.7712    0.0000 C   0  0  0  0  0  0  0  0  0  0  0  0
    3.2000    2.7712    0.0000 C   0  0  0  0  0  0  0  0  0  0  0  0
    2.4000    4.1569    0.0000 H   0  0  0  0  0  0  0  0  0  0  0  0
    2.4000    1.3856    0.0000 C   0  0  0  0  0  0  0  0  0  0  0  0
    5.6000    4.1569    0.0000 H   0  0  0  0  0  0  0  0  0  0  0  0
    7.2000    1.3856    0.0000 H   0  0  0  0  0  0  0  0  0  0  0  0
    5.6000   -1.3856    0.0000 H   0  0  0  0  0  0  0  0  0  0  0  0
   -2.4000   -4.1569    0.0000 H   0  0  0  0  0  0  0  0  0  0  0  0
   -0.8000    4.1569    0.0000 H   0  0  0  0  0  0  0  0  0  0  0  0
    0.8000    4.1569    0.0000 H   0  0  0  0  0  0  0  0  0  0  0  0
    1.6000    2.7713    0.0000 H   0  0  0  0  0  0  0  0  0  0  0  0
  1  2  1  0  0  0  0
  2  3  4  0  0  0  0
  3  4  4  0  0  0  0
  4  5  4  0  0  0  0
  5  6  1  0  0  0  0
  5  7  4  0  0  0  0
  7  8  1  0  0  0  0
  7  9  4  0  0  0  0
  9 10  1  0  0  0  0
  9 11  4  0  0  0  0
 11 12  1  0  0  0  0
 11 13  4  0  0  0  0
 13  4  4  0  0  0  0
 13 14  4  0  0  0  0
 14 15  4  0  0  0  0
 15 16  1  0  0  0  0
 15 17  4  0  0  0  0
 17  3  4  0  0  0  0
 17 18  4  0  0  0  0
 18 19  1  0  0  0  0
 19 20  1  0  0  0  0
 19 21  1  0  0  0  0
 19 22  1  0  0  0  0
 18 23  4  0  0  0  0
 23 24  4  0  0  0  0
 24 25  4  0  0  0  0
 25 26  4  0  0  0  0
 26 27  4  0  0  0  0
 27 28  1  0  0  0  0
 27 29  4  0  0  0  0
 29  2  4  0  0  0  0
 29 23  4  0  0  0  0
 26 30  1  0  0  0  0
 25 31  1  0  0  0  0
 24 32  1  0  0  0  0
 14 33  1  0  0  0  0
  1 34  1  0  0  0  0
  1 35  1  0  0  0  0
  1 36  1  0  0  0  0
M  END
> <CAS>
57-97-6

> <NAME>
7,12-DIME-BENZ(A)ANTHRACENE

> <preferred_name>
7,12-Dimethylbenz(a)anthracene

> <iupac>
7,12-dimethyltetraphene

> <SMILES>
Cc1c2ccc3ccccc3c2c(C)c2ccccc12

> <Canonical_QSARr>
Cc1c2ccc3ccccc3c2c(C)c2ccccc12

> <InChI_Code_QSARr>
InChI=1S/C20H16/c1-13-16-8-5-6-9-17(16)14(2)20-18(13)12-11-15-7-3-4-10-19(15)20/h3-12H,1-2H3

> <InChI Key_QSARr>
ARSRBNBHOADGJU-UHFFFAOYSA-N

> <Salt_Solvent>
?

> <WS Temperature>
25

> <WS Reference>
MACKAY,D & SHIU,WY (1977)

> <dsstox_substance_id>
DTXSID1020510

> <LogMolar>
-6.81745

$$$$
58-18-4
  -INDIGO-01081615412D

 52 55  0  0  0  0  0  0  0  0999 V2000
    4.8000   -0.0000    0.0000 C   0  0  0  0  0  0  0  0  0  0  0  0
    4.3886    0.4902    0.0000 C   0  0  0  0  0  0  0  0  0  0  0  0
    4.9359    1.9938    0.0000 H   0  0  0  0  0  0  0  0  0  0  0  0
    4.0000    1.3856    0.0000 H   0  0  0  0  0  0  0  0  0  0  0  0
    5.9885    0.4902    0.0000 H   0  0  0  0  0  0  0  0  0  0  0  0
    5.6001    1.3856    0.0000 C   0  0  0  0  0  0  0  0  0  0  0  0
    5.8778    2.9613    0.0000 H   0  0  0  0  0  0  0  0  0  0  0  0
    5.0528    2.8892    0.0000 H   0  0  0  0  0  0  0  0  0  0  0  0
    7.2000    1.3856    0.0000 C   0  0  0  0  0  0  0  0  0  0  0  0
    8.7035    1.9329    0.0000 H   0  0  0  0  0  0  0  0  0  0  0  0
    6.9221    2.9613    0.0000 H   0  0  0  0  0  0  0  0  0  0  0  0
    8.0001   -0.0000    0.0000 C   0  0  0  0  0  0  0  0  0  0  0  0
    9.6000   -0.0000    0.0000 O   0  0  0  0  0  0  0  0  0  0  0  0
    7.2000   -1.3856    0.0000 C   0  0  0  0  0  0  0  0  0  0  0  0
    8.0001   -2.7712    0.0000 H   0  0  0  0  0  0  0  0  0  0  0  0
    5.6001   -1.3856    0.0000 C   0  0  0  0  0  0  0  0  0  0  0  0
    4.8000   -2.7712    0.0000 C   0  0  0  0  0  0  0  0  0  0  0  0
    4.5221   -4.3470    0.0000 H   0  0  0  0  0  0  0  0  0  0  0  0
    6.3035   -3.3186    0.0000 H   0  0  0  0  0  0  0  0  0  0  0  0
    3.1999   -2.7712    0.0000 C   0  0  0  0  0  0  0  0  0  0  0  0
    1.9744   -3.7998    0.0000 H   0  0  0  0  0  0  0  0  0  0  0  0
    3.4778   -4.3470    0.0000 H   0  0  0  0  0  0  0  0  0  0  0  0
    2.4001   -1.3856    0.0000 C   0  0  0  0  0  0  0  0  0  0  0  0
    0.7999   -1.3856    0.0000 C   0  0  0  0  0  0  0  0  0  0  0  0
   -0.2706   -2.5746    0.0000 C   0  0  0  0  0  0  0  0  0  0  0  0
   -1.0707   -3.9603    0.0000 H   0  0  0  0  0  0  0  0  0  0  0  0
    0.3802   -4.0364    0.0000 H   0  0  0  0  0  0  0  0  0  0  0  0
   -1.7322   -1.9239    0.0000 C   0  0  0  0  0  0  0  0  0  0  0  0
   -3.2973   -1.5913    0.0000 H   0  0  0  0  0  0  0  0  0  0  0  0
   -2.2267   -3.4456    0.0000 H   0  0  0  0  0  0  0  0  0  0  0  0
   -1.5650   -0.3327    0.0000 C   0  0  0  0  0  0  0  0  0  0  0  0
   -3.1651   -0.3327    0.0000 C   0  0  0  0  0  0  0  0  0  0  0  0
   -4.7650   -0.3327    0.0000 H   0  0  0  0  0  0  0  0  0  0  0  0
   -4.1936   -1.5584    0.0000 H   0  0  0  0  0  0  0  0  0  0  0  0
   -3.9650    1.0529    0.0000 H   0  0  0  0  0  0  0  0  0  0  0  0
   -1.7322    1.2586    0.0000 O   0  0  0  0  0  0  0  0  0  0  0  0
   -3.1941    1.9094    0.0000 H   0  0  0  0  0  0  0  0  0  0  0  0
    0.0001   -0.0000    0.0000 C   0  0  0  0  0  0  0  0  0  0  0  0
   -0.9405    1.2945    0.0000 C   0  0  0  0  0  0  0  0  0  0  0  0
   -2.0915    2.4059    0.0000 H   0  0  0  0  0  0  0  0  0  0  0  0
   -1.1077    2.8856    0.0000 H   0  0  0  0  0  0  0  0  0  0  0  0
   -2.4784    0.8534    0.0000 H   0  0  0  0  0  0  0  0  0  0  0  0
    0.7999    1.3856    0.0000 C   0  0  0  0  0  0  0  0  0  0  0  0
    2.4001    1.3856    0.0000 C   0  0  0  0  0  0  0  0  0  0  0  0
    3.1999    2.7713    0.0000 H   0  0  0  0  0  0  0  0  0  0  0  0
    2.1221    2.9613    0.0000 H   0  0  0  0  0  0  0  0  0  0  0  0
    3.1999   -0.0000    0.0000 C   0  0  0  0  0  0  0  0  0  0  0  0
    3.1762    0.9758    0.0000 H   0  0  0  0  0  0  0  0  0  0  0  0
    1.0779    2.9613    0.0000 H   0  0  0  0  0  0  0  0  0  0  0  0
   -0.2285    2.6113    0.0000 H   0  0  0  0  0  0  0  0  0  0  0  0
    0.6327   -2.9769    0.0000 H   0  0  0  0  0  0  0  0  0  0  0  0
    1.6000   -2.7712    0.0000 H   0  0  0  0  0  0  0  0  0  0  0  0
  1  2  1  0  0  0  0
  2  3  1  0  0  0  0
  2  4  1  0  0  0  0
  2  5  1  0  0  0  0
  1  6  1  0  0  0  0
  6  7  1  0  0  0  0
  6  8  1  0  0  0  0
  6  9  1  0  0  0  0
  9 10  1  0  0  0  0
  9 11  1  0  0  0  0
  9 12  1  0  0  0  0
 12 13  2  0  0  0  0
 12 14  1  0  0  0  0
 14 15  1  0  0  0  0
 14 16  2  0  0  0  0
 16  1  1  0  0  0  0
 16 17  1  0  0  0  0
 17 18  1  0  0  0  0
 17 19  1  0  0  0  0
 17 20  1  0  0  0  0
 20 21  1  0  0  0  0
 20 22  1  0  0  0  0
 20 23  1  0  0  0  0
 23 24  1  0  0  0  0
 24 25  1  0  0  0  0
 25 26  1  0  0  0  0
 25 27  1  0  0  0  0
 25 28  1  0  0  0  0
 28 29  1  0  0  0  0
 28 30  1  0  0  0  0
 28 31  1  0  0  0  0
 31 32  1  0  0  0  0
 32 33  1  0  0  0  0
 32 34  1  0  0  0  0
 32 35  1  0  0  0  0
 31 36  1  0  0  0  0
 36 37  1  0  0  0  0
 31 38  1  0  0  0  0
 38 24  1  0  0  0  0
 38 39  1  0  0  0  0
 39 40  1  0  0  0  0
 39 41  1  0  0  0  0
 39 42  1  0  0  0  0
 38 43  1  0  0  0  0
 43 44  1  0  0  0  0
 44 45  1  0  0  0  0
 44 46  1  0  0  0  0
 44 47  1  0  0  0  0
 47  1  1  0  0  0  0
 47 23  1  0  0  0  0
 47 48  1  0  0  0  0
 43 49  1  0  0  0  0
 43 50  1  0  0  0  0
 24 51  1  0  0  0  0
 23 52  1  0  0  0  0
M  END
> <CAS>
58-18-4

> <NAME>
17-A-METHYL TESTOSTERONE

> <preferred_name>
17-Methyltestosterone

> <iupac>
(17beta)-17-hydroxy-17-methylandrost-4-en-3-one

> <SMILES>
C[C@]12CC[C@H]3[C@@H](CCC4=CC(=O)CC[C@@]43C)[C@@H]1CC[C@]2(C)O

> <Canonical_QSARr>
CC12CCC3C(CCC4=CC(=O)CCC43C)C1CCC2(C)O

> <InChI_Code_QSARr>
InChI=1S/C20H30O2/c1-18-9-6-14(21)12-13(18)4-5-15-16(18)7-10-19(2)17(15)8-11-20(19,3)22/h12,15-17,22H,4-11H2,1-3H3

> <InChI Key_QSARr>
GCKMFJBGXUYNAG-UHFFFAOYSA-N

> <Salt_Solvent>
?

> <WS Temperature>
25

> <WS Reference>
YALKOWSKY,SH & HE,Y (2003)

> <dsstox_substance_id>
DTXSID1033664

> <LogMolar>
-3.9505

$$$$
58-38-8
  -INDIGO-01081615412D

 49 52  0  0  0  0  0  0  0  0999 V2000
   -7.2001    4.1569    0.0000 C   0  0  0  0  0  0  0  0  0  0  0  0
   -6.4000    2.7712    0.0000 C   0  0  0  0  0  0  0  0  0  0  0  0
   -4.8000    2.7712    0.0000 H   0  0  0  0  0  0  0  0  0  0  0  0
   -7.2001    1.3856    0.0000 C   0  0  0  0  0  0  0  0  0  0  0  0
   -6.4000   -0.0001    0.0000 N   0  0  0  0  0  0  0  0  0  0  0  0
   -7.2001   -1.3856    0.0000 C   0  0  0  0  0  0  0  0  0  0  0  0
   -6.4000   -2.7712    0.0000 C   0  0  0  0  0  0  0  0  0  0  0  0
   -4.8000   -2.7712    0.0000 H   0  0  0  0  0  0  0  0  0  0  0  0
   -7.2001   -4.1569    0.0000 C   0  0  0  0  0  0  0  0  0  0  0  0
   -6.4000   -5.5426    0.0000 Cl  0  0  0  0  0  0  0  0  0  0  0  0
   -8.7999   -4.1569    0.0000 C   0  0  0  0  0  0  0  0  0  0  0  0
   -9.5999   -5.5426    0.0000 H   0  0  0  0  0  0  0  0  0  0  0  0
   -9.5999   -2.7712    0.0000 C   0  0  0  0  0  0  0  0  0  0  0  0
  -11.2000   -2.7712    0.0000 H   0  0  0  0  0  0  0  0  0  0  0  0
   -8.7999   -1.3856    0.0000 C   0  0  0  0  0  0  0  0  0  0  0  0
   -9.5999   -0.0001    0.0000 S   0  0  0  0  0  0  0  0  0  0  0  0
   -8.7999    1.3856    0.0000 C   0  0  0  0  0  0  0  0  0  0  0  0
   -9.5999    2.7712    0.0000 C   0  0  0  0  0  0  0  0  0  0  0  0
  -11.2000    2.7712    0.0000 H   0  0  0  0  0  0  0  0  0  0  0  0
   -8.7999    4.1569    0.0000 C   0  0  0  0  0  0  0  0  0  0  0  0
   -9.5999    5.5426    0.0000 H   0  0  0  0  0  0  0  0  0  0  0  0
   -4.8000   -0.0001    0.0000 C   0  0  0  0  0  0  0  0  0  0  0  0
   -3.1999   -0.0001    0.0000 C   0  0  0  0  0  0  0  0  0  0  0  0
   -1.6001   -0.0001    0.0000 C   0  0  0  0  0  0  0  0  0  0  0  0
   -0.0000   -0.0001    0.0000 N   0  0  0  0  0  0  0  0  0  0  0  0
    0.8000   -1.3856    0.0000 C   0  0  0  0  0  0  0  0  0  0  0  0
   -0.5858   -2.1856    0.0000 H   0  0  0  0  0  0  0  0  0  0  0  0
    1.0780   -2.9614    0.0000 H   0  0  0  0  0  0  0  0  0  0  0  0
    2.4001   -1.3856    0.0000 C   0  0  0  0  0  0  0  0  0  0  0  0
    2.1221   -2.9614    0.0000 H   0  0  0  0  0  0  0  0  0  0  0  0
    3.9035   -1.9329    0.0000 H   0  0  0  0  0  0  0  0  0  0  0  0
    3.2001    0.0001    0.0000 N   0  0  0  0  0  0  0  0  0  0  0  0
    4.7999    0.0001    0.0000 C   0  0  0  0  0  0  0  0  0  0  0  0
    6.4000    0.0001    0.0000 H   0  0  0  0  0  0  0  0  0  0  0  0
    5.6000    1.3856    0.0000 H   0  0  0  0  0  0  0  0  0  0  0  0
    5.6000   -1.3856    0.0000 H   0  0  0  0  0  0  0  0  0  0  0  0
    2.4001    1.3856    0.0000 C   0  0  0  0  0  0  0  0  0  0  0  0
    3.9035    1.9329    0.0000 H   0  0  0  0  0  0  0  0  0  0  0  0
    2.1221    2.9614    0.0000 H   0  0  0  0  0  0  0  0  0  0  0  0
    0.8000    1.3856    0.0000 C   0  0  0  0  0  0  0  0  0  0  0  0
    1.0777    2.9614    0.0000 H   0  0  0  0  0  0  0  0  0  0  0  0
   -0.4257    2.4142    0.0000 H   0  0  0  0  0  0  0  0  0  0  0  0
   -1.6001    1.6001    0.0000 H   0  0  0  0  0  0  0  0  0  0  0  0
   -1.6001   -1.6001    0.0000 H   0  0  0  0  0  0  0  0  0  0  0  0
   -3.1999    1.6001    0.0000 H   0  0  0  0  0  0  0  0  0  0  0  0
   -3.1999   -1.6001    0.0000 H   0  0  0  0  0  0  0  0  0  0  0  0
   -4.8000    1.6001    0.0000 H   0  0  0  0  0  0  0  0  0  0  0  0
   -4.8000   -1.6001    0.0000 H   0  0  0  0  0  0  0  0  0  0  0  0
   -6.4000    5.5426    0.0000 H   0  0  0  0  0  0  0  0  0  0  0  0
  1  2  4  0  0  0  0
  2  3  1  0  0  0  0
  2  4  4  0  0  0  0
  4  5  1  0  0  0  0
  5  6  1  0  0  0  0
  6  7  4  0  0  0  0
  7  8  1  0  0  0  0
  7  9  4  0  0  0  0
  9 10  1  0  0  0  0
  9 11  4  0  0  0  0
 11 12  1  0  0  0  0
 11 13  4  0  0  0  0
 13 14  1  0  0  0  0
 13 15  4  0  0  0  0
 15  6  4  0  0  0  0
 15 16  1  0  0  0  0
 16 17  1  0  0  0  0
 17  4  4  0  0  0  0
 17 18  4  0  0  0  0
 18 19  1  0  0  0  0
 18 20  4  0  0  0  0
 20  1  4  0  0  0  0
 20 21  1  0  0  0  0
  5 22  1  0  0  0  0
 22 23  1  0  0  0  0
 23 24  1  0  0  0  0
 24 25  1  0  0  0  0
 25 26  1  0  0  0  0
 26 27  1  0  0  0  0
 26 28  1  0  0  0  0
 26 29  1  0  0  0  0
 29 30  1  0  0  0  0
 29 31  1  0  0  0  0
 29 32  1  0  0  0  0
 32 33  1  0  0  0  0
 33 34  1  0  0  0  0
 33 35  1  0  0  0  0
 33 36  1  0  0  0  0
 32 37  1  0  0  0  0
 37 38  1  0  0  0  0
 37 39  1  0  0  0  0
 37 40  1  0  0  0  0
 40 25  1  0  0  0  0
 40 41  1  0  0  0  0
 40 42  1  0  0  0  0
 24 43  1  0  0  0  0
 24 44  1  0  0  0  0
 23 45  1  0  0  0  0
 23 46  1  0  0  0  0
 22 47  1  0  0  0  0
 22 48  1  0  0  0  0
  1 49  1  0  0  0  0
M  END
> <CAS>
58-38-8

> <NAME>
Prochloroperazine

> <preferred_name>
Prochlorperazine

> <iupac>
2-chloro-10-[3-(4-methylpiperazin-1-yl)propyl]-10H-phenothiazine

> <SMILES>
CN1CCN(CCCN2c3ccccc3Sc3ccc(Cl)cc23)CC1

> <Canonical_QSARr>
CN1CCN(CCCN2c3ccccc3Sc3ccc(Cl)cc23)CC1

> <InChI_Code_QSARr>
InChI=1S/C20H24ClN3S/c1-22-11-13-23(14-12-22)9-4-10-24-17-5-2-3-6-19(17)25-20-8-7-16(21)15-18(20)24/h2-3,5-8,15H,4,9-14H2,1H3

> <InChI Key_QSARr>
WIKYUJGCLQQFNW-UHFFFAOYSA-N

> <Salt_Solvent>
?

> <WS Temperature>
24

> <WS Reference>
YALKOWSKY,SH & HE,Y (2003)

> <dsstox_substance_id>
DTXSID7023514

> <LogMolar>
-4.3979

$$$$
58-63-9
  -INDIGO-01081615412D

 31 33  0  0  0  0  0  0  0  0999 V2000
    1.5649    0.3327    0.0000 N   0  0  0  1  0  0  0  0  0  0  0  0
    0.0000    0.0001    0.0000 C   0  0  0  0  0  0  0  0  0  0  0  0
   -0.7014    1.4380    0.0000 C   0  0  0  0  0  0  0  0  0  0  0  0
   -1.0884    2.9905    0.0000 O   0  0  0  0  0  0  0  0  0  0  0  0
   -0.1480    4.2850    0.0000 H   0  0  0  0  0  0  0  0  0  0  0  0
    0.8021    1.9853    0.0000 H   0  0  0  0  0  0  0  0  0  0  0  0
   -2.2859    1.2154    0.0000 C   0  0  0  0  0  0  0  0  0  0  0  0
   -3.8818    1.3270    0.0000 O   0  0  0  0  0  0  0  0  0  0  0  0
   -4.5834    2.7651    0.0000 H   0  0  0  0  0  0  0  0  0  0  0  0
   -2.3417    2.8144    0.0000 H   0  0  0  0  0  0  0  0  0  0  0  0
   -2.5636   -0.3602    0.0000 C   0  0  0  0  0  0  0  0  0  0  0  0
   -3.1630   -1.8438    0.0000 C   0  0  0  0  0  0  0  0  0  0  0  0
   -3.7623   -3.3273    0.0000 O   0  0  0  0  0  0  0  0  0  0  0  0
   -5.3468   -3.5499    0.0000 H   0  0  0  0  0  0  0  0  0  0  0  0
   -4.6465   -1.2444    0.0000 H   0  0  0  0  0  0  0  0  0  0  0  0
   -1.6796   -2.4432    0.0000 H   0  0  0  0  0  0  0  0  0  0  0  0
   -4.1017    0.0807    0.0000 H   0  0  0  0  0  0  0  0  0  0  0  0
   -1.1508   -1.1114    0.0000 O   0  0  0  0  0  0  0  0  0  0  0  0
    0.9851   -1.2608    0.0000 H   0  0  0  0  0  0  0  0  0  0  0  0
    2.2157    1.7943    0.0000 C   0  0  0  0  0  0  0  0  0  0  0  0
    1.4159    3.1799    0.0000 H   0  0  0  0  0  0  0  0  0  0  0  0
    3.8071    1.6270    0.0000 N   0  0  0  1  0  0  0  0  0  0  0  0
    4.1398    0.0620    0.0000 C   0  0  0  0  0  0  0  0  0  0  0  0
    5.5253   -0.7379    0.0000 C   0  0  0  0  0  0  0  0  0  0  0  0
    5.5253   -2.3379    0.0000 N   0  0  0  1  0  0  0  0  0  0  0  0
    4.1398   -3.1380    0.0000 C   0  0  0  0  0  0  0  0  0  0  0  0
    2.7541   -2.3379    0.0000 N   0  0  0  1  0  0  0  0  0  0  0  0
    2.7541   -0.7379    0.0000 C   0  0  0  0  0  0  0  0  0  0  0  0
    4.1398   -4.7379    0.0000 H   0  0  0  0  0  0  0  0  0  0  0  0
    6.9109    0.0620    0.0000 O   0  0  0  0  0  0  0  0  0  0  0  0
    8.2966   -0.7379    0.0000 H   0  0  0  0  0  0  0  0  0  0  0  0
  1  2  1  0  0  0  0
  2  3  1  0  0  0  0
  3  4  1  0  0  0  0
  4  5  1  0  0  0  0
  3  6  1  0  0  0  0
  3  7  1  0  0  0  0
  7  8  1  0  0  0  0
  8  9  1  0  0  0  0
  7 10  1  0  0  0  0
  7 11  1  0  0  0  0
 11 12  1  0  0  0  0
 12 13  1  0  0  0  0
 13 14  1  0  0  0  0
 12 15  1  0  0  0  0
 12 16  1  0  0  0  0
 11 17  1  0  0  0  0
 11 18  1  0  0  0  0
 18  2  1  0  0  0  0
  2 19  1  0  0  0  0
  1 20  4  0  0  0  0
 20 21  1  0  0  0  0
 20 22  4  0  0  0  0
 22 23  4  0  0  0  0
 23 24  4  0  0  0  0
 24 25  4  0  0  0  0
 25 26  4  0  0  0  0
 26 27  4  0  0  0  0
 27 28  4  0  0  0  0
 28  1  4  0  0  0  0
 28 23  4  0  0  0  0
 26 29  1  0  0  0  0
 24 30  1  0  0  0  0
 30 31  1  0  0  0  0
M  END
> <CAS>
58-63-9

> <NAME>
INOSINE

> <preferred_name>
Inosine

> <iupac>
9-(beta-D-ribofuranosyl)-9H-purin-6-ol

> <SMILES>
Oc1[n]c[n]c2c1[n]c[n]2[C@@H]1O[C@H](CO)[C@@H](O)[C@H]1O

> <Canonical_QSARr>
Oc1[n]c[n]c2c1[n]c[n]2C1OC(CO)C(O)C1O

> <InChI_Code_QSARr>
InChI=1S/C10H12N4O5/c15-1-4-6(16)7(17)10(19-4)14-3-13-5-8(14)11-2-12-9(5)18/h2-4,6-7,10,15-17H,1H2,(H,11,12,18)

> <InChI Key_QSARr>
UGQMRVRMYYASKQ-UHFFFAOYSA-N

> <Salt_Solvent>
?

> <WS Temperature>
20

> <WS Reference>
YALKOWSKY,SH & DANNENFELSER,RM (1992)

> <dsstox_substance_id>
DTXSID2045993

> <LogMolar>
-1.2299

$$$$
58-89-9, 319-84-6, 319-85-7, 319-86-8, 608-73-1
  -INDIGO-01081615412D

 18 18  0  0  0  0  0  0  0  0999 V2000
    0.0000    0.0000    0.0000 C   0  0  0  0  0  0  0  0  0  0  0  0
    1.5757   -0.2778    0.0000 Cl  0  0  0  0  0  0  0  0  0  0  0  0
   -1.3857    0.8000    0.0000 C   0  0  0  0  0  0  0  0  0  0  0  0
   -0.3571    2.0257    0.0000 Cl  0  0  0  0  0  0  0  0  0  0  0  0
   -2.4141    2.0257    0.0000 H   0  0  0  0  0  0  0  0  0  0  0  0
   -2.7713    0.0000    0.0000 C   0  0  0  0  0  0  0  0  0  0  0  0
   -3.3185    1.5035    0.0000 Cl  0  0  0  0  0  0  0  0  0  0  0  0
   -4.3470   -0.2778    0.0000 H   0  0  0  0  0  0  0  0  0  0  0  0
   -2.7713   -1.6000    0.0000 C   0  0  0  0  0  0  0  0  0  0  0  0
   -4.3470   -1.3222    0.0000 Cl  0  0  0  0  0  0  0  0  0  0  0  0
   -3.3185   -3.1035    0.0000 H   0  0  0  0  0  0  0  0  0  0  0  0
   -1.3856   -2.4000    0.0000 C   0  0  0  0  0  0  0  0  0  0  0  0
   -2.4141   -3.6257    0.0000 Cl  0  0  0  0  0  0  0  0  0  0  0  0
   -0.3571   -3.6257    0.0000 H   0  0  0  0  0  0  0  0  0  0  0  0
    0.0000   -1.6000    0.0000 C   0  0  0  0  0  0  0  0  0  0  0  0
    0.5472   -3.1035    0.0000 Cl  0  0  0  0  0  0  0  0  0  0  0  0
    1.5757   -1.3222    0.0000 H   0  0  0  0  0  0  0  0  0  0  0  0
    0.5472    1.5035    0.0000 H   0  0  0  0  0  0  0  0  0  0  0  0
  1  2  1  0  0  0  0
  1  3  1  0  0  0  0
  3  4  1  0  0  0  0
  3  5  1  0  0  0  0
  3  6  1  0  0  0  0
  6  7  1  0  0  0  0
  6  8  1  0  0  0  0
  6  9  1  0  0  0  0
  9 10  1  0  0  0  0
  9 11  1  0  0  0  0
  9 12  1  0  0  0  0
 12 13  1  0  0  0  0
 12 14  1  0  0  0  0
 12 15  1  0  0  0  0
 15  1  1  0  0  0  0
 15 16  1  0  0  0  0
 15 17  1  0  0  0  0
  1 18  1  0  0  0  0
M  END
> <CAS>
58-89-9, 319-84-6, 319-85-7, 319-86-8, 608-73-1

> <NAME>
GAMMA-HEXACHLOROCYCLOHEXANE, ALPHA-HEXACHLOROCYCLOHEXANE, BETA-HEXACHLOROCYCLOHEXANE, DELTA-HEXACHLOROCYCLOHEXANE, 1,2,3,4,5,6-HEXACHLOROCYCLOHEXANE (mixture)

> <preferred_name>
Lindane

> <iupac>
1,2,3,4,5,6-hexachlorocyclohexane

> <SMILES>
Cl[C@@H]1[C@@H](Cl)[C@H](Cl)[C@H](Cl)[C@@H](Cl)[C@@H]1Cl |&1:1,2,4,6,8,10|

> <Canonical_QSARr>
ClC1C(Cl)C(Cl)C(Cl)C(Cl)C1Cl

> <InChI_Code_QSARr>
InChI=1S/C6H6Cl6/c7-1-2(8)4(10)6(12)5(11)3(1)9/h1-6H

> <InChI Key_QSARr>
JLYXXMFPNIAWKQ-UHFFFAOYSA-N

> <Salt_Solvent>
?

> <WS Temperature>
25

> <WS Reference>
RICHARDSON,LT & MILLER,DM (1960)

> <dsstox_substance_id>
DTXSID2020686

> <LogMolar>
-5.02579

$$$$
59-26-7
  -INDIGO-01081615412D

 27 27  0  0  0  0  0  0  0  0999 V2000
   -0.5556    3.1514    0.0000 C   0  0  0  0  0  0  0  0  0  0  0  0
   -0.2779    1.5756    0.0000 C   0  0  0  0  0  0  0  0  0  0  0  0
   -0.0001   -0.0000    0.0000 N   0  0  0  0  0  0  0  0  0  0  0  0
   -1.2256   -1.0285    0.0000 C   0  0  0  0  0  0  0  0  0  0  0  0
   -2.8013   -0.7506    0.0000 C   0  0  0  0  0  0  0  0  0  0  0  0
   -3.6014    0.6350    0.0000 C   0  0  0  0  0  0  0  0  0  0  0  0
   -2.8013    2.0207    0.0000 H   0  0  0  0  0  0  0  0  0  0  0  0
   -5.2013    0.6350    0.0000 N   0  0  0  1  0  0  0  0  0  0  0  0
   -6.0014   -0.7506    0.0000 C   0  0  0  0  0  0  0  0  0  0  0  0
   -7.6014   -0.7506    0.0000 H   0  0  0  0  0  0  0  0  0  0  0  0
   -5.2013   -2.1363    0.0000 C   0  0  0  0  0  0  0  0  0  0  0  0
   -6.0014   -3.5219    0.0000 H   0  0  0  0  0  0  0  0  0  0  0  0
   -3.6014   -2.1363    0.0000 C   0  0  0  0  0  0  0  0  0  0  0  0
   -2.8013   -3.5219    0.0000 H   0  0  0  0  0  0  0  0  0  0  0  0
   -0.9478   -2.6042    0.0000 O   0  0  0  0  0  0  0  0  0  0  0  0
    1.5036   -0.5472    0.0000 C   0  0  0  0  0  0  0  0  0  0  0  0
    3.0071   -1.0945    0.0000 C   0  0  0  0  0  0  0  0  0  0  0  0
    4.5105   -1.6416    0.0000 H   0  0  0  0  0  0  0  0  0  0  0  0
    3.2848   -2.6701    0.0000 H   0  0  0  0  0  0  0  0  0  0  0  0
    4.2327   -0.0660    0.0000 H   0  0  0  0  0  0  0  0  0  0  0  0
    2.0508    0.9562    0.0000 H   0  0  0  0  0  0  0  0  0  0  0  0
    0.9563   -2.0507    0.0000 H   0  0  0  0  0  0  0  0  0  0  0  0
    1.2979    1.8536    0.0000 H   0  0  0  0  0  0  0  0  0  0  0  0
   -1.8536    1.2978    0.0000 H   0  0  0  0  0  0  0  0  0  0  0  0
   -0.8336    4.7271    0.0000 H   0  0  0  0  0  0  0  0  0  0  0  0
    0.6701    4.1798    0.0000 H   0  0  0  0  0  0  0  0  0  0  0  0
   -2.0591    3.6986    0.0000 H   0  0  0  0  0  0  0  0  0  0  0  0
  1  2  1  0  0  0  0
  2  3  1  0  0  0  0
  3  4  1  0  0  0  0
  4  5  1  0  0  0  0
  5  6  4  0  0  0  0
  6  7  1  0  0  0  0
  6  8  4  0  0  0  0
  8  9  4  0  0  0  0
  9 10  1  0  0  0  0
  9 11  4  0  0  0  0
 11 12  1  0  0  0  0
 11 13  4  0  0  0  0
 13  5  4  0  0  0  0
 13 14  1  0  0  0  0
  4 15  2  0  0  0  0
  3 16  1  0  0  0  0
 16 17  1  0  0  0  0
 17 18  1  0  0  0  0
 17 19  1  0  0  0  0
 17 20  1  0  0  0  0
 16 21  1  0  0  0  0
 16 22  1  0  0  0  0
  2 23  1  0  0  0  0
  2 24  1  0  0  0  0
  1 25  1  0  0  0  0
  1 26  1  0  0  0  0
  1 27  1  0  0  0  0
M  END
> <CAS>
59-26-7

> <NAME>
NIKETHAMIDE

> <preferred_name>
N,N-Diethylnicotinamide

> <iupac>
N,N-diethylpyridine-3-carboxamide

> <SMILES>
CCN(CC)C(=O)c1ccc[n]c1

> <Canonical_QSARr>
CCN(CC)C(=O)c1ccc[n]c1

> <InChI_Code_QSARr>
InChI=1S/C10H14N2O/c1-3-12(4-2)10(13)9-6-5-7-11-8-9/h5-8H,3-4H2,1-2H3

> <InChI Key_QSARr>
NCYVXEGFNDZQCU-UHFFFAOYSA-N

> <Salt_Solvent>
?

> <WS Temperature>
25

> <WS Reference>
MERCK INDEX (1989)

> <dsstox_substance_id>
DTXSID9046524

> <LogMolar>
0.749

$$$$
59-47-2
  -INDIGO-01081615412D

 27 27  0  0  0  0  0  0  0  0999 V2000
    5.5425    1.6000    0.0000 C   0  0  0  0  0  0  0  0  0  0  0  0
    4.1569    0.7999    0.0000 C   0  0  0  0  0  0  0  0  0  0  0  0
    2.7712    1.6000    0.0000 H   0  0  0  0  0  0  0  0  0  0  0  0
    4.1569   -0.8001    0.0000 C   0  0  0  0  0  0  0  0  0  0  0  0
    2.7712   -1.6000    0.0000 O   0  0  0  0  0  0  0  0  0  0  0  0
    1.3857   -0.7999    0.0000 C   0  0  0  0  0  0  0  0  0  0  0  0
    0.0000    0.0000    0.0000 C   0  0  0  0  0  0  0  0  0  0  0  0
   -1.3856    0.8001    0.0000 C   0  0  0  0  0  0  0  0  0  0  0  0
   -2.7713    1.6000    0.0000 O   0  0  0  0  0  0  0  0  0  0  0  0
   -2.7713    3.2000    0.0000 H   0  0  0  0  0  0  0  0  0  0  0  0
   -2.1857   -0.5856    0.0000 H   0  0  0  0  0  0  0  0  0  0  0  0
   -0.5857    2.1856    0.0000 H   0  0  0  0  0  0  0  0  0  0  0  0
   -0.8000   -1.3856    0.0000 O   0  0  0  0  0  0  0  0  0  0  0  0
   -2.3036   -1.9329    0.0000 H   0  0  0  0  0  0  0  0  0  0  0  0
    0.7999    1.3856    0.0000 H   0  0  0  0  0  0  0  0  0  0  0  0
    0.5856   -2.1856    0.0000 H   0  0  0  0  0  0  0  0  0  0  0  0
    2.1856    0.5857    0.0000 H   0  0  0  0  0  0  0  0  0  0  0  0
    5.5425   -1.6000    0.0000 C   0  0  0  0  0  0  0  0  0  0  0  0
    5.5425   -3.2000    0.0000 C   0  0  0  0  0  0  0  0  0  0  0  0
    5.5425   -4.8000    0.0000 H   0  0  0  0  0  0  0  0  0  0  0  0
    6.9282   -3.9999    0.0000 H   0  0  0  0  0  0  0  0  0  0  0  0
    4.1569   -3.9999    0.0000 H   0  0  0  0  0  0  0  0  0  0  0  0
    6.9282   -0.7999    0.0000 C   0  0  0  0  0  0  0  0  0  0  0  0
    8.3138   -1.6000    0.0000 H   0  0  0  0  0  0  0  0  0  0  0  0
    6.9282    0.8001    0.0000 C   0  0  0  0  0  0  0  0  0  0  0  0
    8.3138    1.6000    0.0000 H   0  0  0  0  0  0  0  0  0  0  0  0
    5.5425    3.2000    0.0000 H   0  0  0  0  0  0  0  0  0  0  0  0
  1  2  4  0  0  0  0
  2  3  1  0  0  0  0
  2  4  4  0  0  0  0
  4  5  1  0  0  0  0
  5  6  1  0  0  0  0
  6  7  1  0  0  0  0
  7  8  1  0  0  0  0
  8  9  1  0  0  0  0
  9 10  1  0  0  0  0
  8 11  1  0  0  0  0
  8 12  1  0  0  0  0
  7 13  1  0  0  0  0
 13 14  1  0  0  0  0
  7 15  1  0  0  0  0
  6 16  1  0  0  0  0
  6 17  1  0  0  0  0
  4 18  4  0  0  0  0
 18 19  1  0  0  0  0
 19 20  1  0  0  0  0
 19 21  1  0  0  0  0
 19 22  1  0  0  0  0
 18 23  4  0  0  0  0
 23 24  1  0  0  0  0
 23 25  4  0  0  0  0
 25  1  4  0  0  0  0
 25 26  1  0  0  0  0
  1 27  1  0  0  0  0
M  END
> <CAS>
59-47-2

> <NAME>
1,2-PROPANEDIOL-3-(2-TOLYLOXY)

> <preferred_name>
Mephenesin

> <iupac>
3-(2-methylphenoxy)propane-1,2-diol

> <SMILES>
Cc1ccccc1OCC(O)CO

> <Canonical_QSARr>
Cc1ccccc1OCC(O)CO

> <InChI_Code_QSARr>
InChI=1S/C10H14O3/c1-8-4-2-3-5-10(8)13-7-9(12)6-11/h2-5,9,11-12H,6-7H2,1H3

> <InChI Key_QSARr>
JWDYCNIAQWPBHD-UHFFFAOYSA-N

> <Salt_Solvent>
?

> <WS Temperature>
20

> <WS Reference>
YALKOWSKY,SH & DANNENFELSER,RM (1992)

> <dsstox_substance_id>
DTXSID4023254

> <LogMolar>
-1.1887

$$$$
59-66-5
  -INDIGO-01081615412D

 19 19  0  0  0  0  0  0  0  0999 V2000
   -3.6162    2.0161    0.0000 N   0  0  0  1  0  0  0  0  0  0  0  0
   -4.1105    0.4945    0.0000 C   0  0  0  0  0  0  0  0  0  0  0  0
   -5.6322   -0.0000    0.0000 N   0  0  0  0  0  0  0  0  0  0  0  0
   -6.8213    1.0706    0.0000 C   0  0  0  0  0  0  0  0  0  0  0  0
   -6.4886    2.6356    0.0000 O   0  0  0  0  0  0  0  0  0  0  0  0
   -8.3430    0.5762    0.0000 C   0  0  0  0  0  0  0  0  0  0  0  0
   -9.8646    0.0817    0.0000 H   0  0  0  0  0  0  0  0  0  0  0  0
   -9.5319    1.6468    0.0000 H   0  0  0  0  0  0  0  0  0  0  0  0
   -8.6757   -0.9888    0.0000 H   0  0  0  0  0  0  0  0  0  0  0  0
   -5.9649   -1.5651    0.0000 H   0  0  0  0  0  0  0  0  0  0  0  0
   -2.8160   -0.4460    0.0000 S   0  0  0  1  0  0  0  0  0  0  0  0
   -1.5217    0.4945    0.0000 C   0  0  0  0  0  0  0  0  0  0  0  0
   -0.0001   -0.0000    0.0000 S   0  0  0  0  0  0  0  0  0  0  0  0
    0.4944    1.5217    0.0000 O   0  0  0  0  0  0  0  0  0  0  0  0
   -0.4944   -1.5217    0.0000 O   0  0  0  0  0  0  0  0  0  0  0  0
    1.5218   -0.4944    0.0000 N   0  0  0  0  0  0  0  0  0  0  0  0
    2.7107    0.5762    0.0000 H   0  0  0  0  0  0  0  0  0  0  0  0
    1.8543   -2.0595    0.0000 H   0  0  0  0  0  0  0  0  0  0  0  0
   -2.0161    2.0161    0.0000 N   0  0  0  1  0  0  0  0  0  0  0  0
  1  2  4  0  0  0  0
  2  3  1  0  0  0  0
  3  4  1  0  0  0  0
  4  5  2  0  0  0  0
  4  6  1  0  0  0  0
  6  7  1  0  0  0  0
  6  8  1  0  0  0  0
  6  9  1  0  0  0  0
  3 10  1  0  0  0  0
  2 11  4  0  0  0  0
 11 12  4  0  0  0  0
 12 13  1  0  0  0  0
 13 14  2  0  0  0  0
 13 15  2  0  0  0  0
 13 16  1  0  0  0  0
 16 17  1  0  0  0  0
 16 18  1  0  0  0  0
 12 19  4  0  0  0  0
 19  1  4  0  0  0  0
M  END
> <CAS>
59-66-5

> <NAME>
ACETAZOLEAMIDE

> <preferred_name>
Acetazolamide

> <iupac>
N-(5-sulfamoyl-1,3,4-thiadiazol-2-yl)acetamide

> <SMILES>
CC(=O)Nc1[n][n]c([s]1)S(N)(=O)=O

> <Canonical_QSARr>
CC(=O)Nc1[n][n]c([s]1)S(N)(=O)=O

> <InChI_Code_QSARr>
InChI=1S/C4H6N4O3S2/c1-2(9)6-3-7-8-4(12-3)13(5,10)11/h1H3,(H2,5,10,11)(H,6,7,9)

> <InChI Key_QSARr>
BZKPWHYZMXOIDC-UHFFFAOYSA-N

> <Salt_Solvent>
?

> <WS Temperature>
30

> <WS Reference>
YALKOWSKY,SH & DANNENFELSER,RM (1992)

> <dsstox_substance_id>
DTXSID7022544

> <LogMolar>
-2.3556

$$$$
60-00-4
  -INDIGO-01081615412D

 36 35  0  0  0  0  0  0  0  0999 V2000
   -1.5999    0.0001    0.0000 N   0  0  0  0  0  0  0  0  0  0  0  0
   -2.4000   -1.3856    0.0000 C   0  0  0  0  0  0  0  0  0  0  0  0
   -3.2000   -2.7712    0.0000 C   0  0  0  0  0  0  0  0  0  0  0  0
   -2.4000   -4.1569    0.0000 O   0  0  0  0  0  0  0  0  0  0  0  0
   -4.8000   -2.7713    0.0000 O   0  0  0  0  0  0  0  0  0  0  0  0
   -5.6000   -4.1569    0.0000 H   0  0  0  0  0  0  0  0  0  0  0  0
   -3.7857   -0.5857    0.0000 H   0  0  0  0  0  0  0  0  0  0  0  0
   -1.0144   -2.1856    0.0000 H   0  0  0  0  0  0  0  0  0  0  0  0
   -2.4000    1.3856    0.0000 C   0  0  0  0  0  0  0  0  0  0  0  0
   -3.2000    2.7712    0.0000 C   0  0  0  0  0  0  0  0  0  0  0  0
   -2.4000    4.1569    0.0000 O   0  0  0  0  0  0  0  0  0  0  0  0
   -4.8000    2.7712    0.0000 O   0  0  0  0  0  0  0  0  0  0  0  0
   -5.6000    4.1569    0.0000 H   0  0  0  0  0  0  0  0  0  0  0  0
   -3.7857    0.5857    0.0000 H   0  0  0  0  0  0  0  0  0  0  0  0
   -1.0144    2.1856    0.0000 H   0  0  0  0  0  0  0  0  0  0  0  0
    0.0001    0.0001    0.0000 C   0  0  0  0  0  0  0  0  0  0  0  0
    1.5999    0.0001    0.0000 C   0  0  0  0  0  0  0  0  0  0  0  0
    3.1999    0.0001    0.0000 N   0  0  0  0  0  0  0  0  0  0  0  0
    4.0000   -1.3856    0.0000 C   0  0  0  0  0  0  0  0  0  0  0  0
    4.8000   -2.7712    0.0000 C   0  0  0  0  0  0  0  0  0  0  0  0
    4.0000   -4.1569    0.0000 O   0  0  0  0  0  0  0  0  0  0  0  0
    6.4000   -2.7712    0.0000 O   0  0  0  0  0  0  0  0  0  0  0  0
    7.2000   -4.1569    0.0000 H   0  0  0  0  0  0  0  0  0  0  0  0
    5.3857   -0.5857    0.0000 H   0  0  0  0  0  0  0  0  0  0  0  0
    2.6144   -2.1856    0.0000 H   0  0  0  0  0  0  0  0  0  0  0  0
    4.0000    1.3856    0.0000 C   0  0  0  0  0  0  0  0  0  0  0  0
    4.8000    2.7713    0.0000 C   0  0  0  0  0  0  0  0  0  0  0  0
    4.0000    4.1569    0.0000 O   0  0  0  0  0  0  0  0  0  0  0  0
    6.4000    2.7713    0.0000 O   0  0  0  0  0  0  0  0  0  0  0  0
    7.2000    4.1569    0.0000 H   0  0  0  0  0  0  0  0  0  0  0  0
    5.3857    0.5857    0.0000 H   0  0  0  0  0  0  0  0  0  0  0  0
    2.6144    2.1856    0.0000 H   0  0  0  0  0  0  0  0  0  0  0  0
    1.5999   -1.6000    0.0000 H   0  0  0  0  0  0  0  0  0  0  0  0
    1.5999    1.6000    0.0000 H   0  0  0  0  0  0  0  0  0  0  0  0
    0.0001    1.6000    0.0000 H   0  0  0  0  0  0  0  0  0  0  0  0
    0.0001   -1.6000    0.0000 H   0  0  0  0  0  0  0  0  0  0  0  0
  1  2  1  0  0  0  0
  2  3  1  0  0  0  0
  3  4  2  0  0  0  0
  3  5  1  0  0  0  0
  5  6  1  0  0  0  0
  2  7  1  0  0  0  0
  2  8  1  0  0  0  0
  1  9  1  0  0  0  0
  9 10  1  0  0  0  0
 10 11  2  0  0  0  0
 10 12  1  0  0  0  0
 12 13  1  0  0  0  0
  9 14  1  0  0  0  0
  9 15  1  0  0  0  0
  1 16  1  0  0  0  0
 16 17  1  0  0  0  0
 17 18  1  0  0  0  0
 18 19  1  0  0  0  0
 19 20  1  0  0  0  0
 20 21  2  0  0  0  0
 20 22  1  0  0  0  0
 22 23  1  0  0  0  0
 19 24  1  0  0  0  0
 19 25  1  0  0  0  0
 18 26  1  0  0  0  0
 26 27  1  0  0  0  0
 27 28  2  0  0  0  0
 27 29  1  0  0  0  0
 29 30  1  0  0  0  0
 26 31  1  0  0  0  0
 26 32  1  0  0  0  0
 17 33  1  0  0  0  0
 17 34  1  0  0  0  0
 16 35  1  0  0  0  0
 16 36  1  0  0  0  0
M  END
> <CAS>
60-00-4

> <NAME>
ETHYLENEDIAMINE TETRAACETIC ACID

> <preferred_name>
Ethylenediaminetetraacetic acid

> <iupac>
C10H16N2O8

> <SMILES>
OC(=O)CN(CC(O)=O)CCN(CC(O)=O)CC(O)=O

> <Canonical_QSARr>
OC(=O)CN(CC(O)=O)CCN(CC(O)=O)CC(O)=O

> <InChI_Code_QSARr>
InChI=1S/C10H16N2O8/c13-7(14)3-11(4-8(15)16)1-2-12(5-9(17)18)6-10(19)20/h1-6H2,(H,13,14)(H,15,16)(H,17,18)(H,19,20)

> <InChI Key_QSARr>
KCXVZYZYPLLWCC-UHFFFAOYSA-N

> <Salt_Solvent>
?

> <WS Temperature>
25

> <WS Reference>
WOLF,K & GILBERT,PA (1992)

> <dsstox_substance_id>
DTXSID6022977

> <LogMolar>
-2.4658

$$$$
60-18-4, 556-02-5, 556-03-6
  -INDIGO-01081615412D

 24 24  0  0  0  0  0  0  0  0999 V2000
    3.1757    0.2779    0.0000 C   0  0  0  0  0  0  0  0  0  0  0  0
    3.7229    1.7813    0.0000 O   0  0  0  0  0  0  0  0  0  0  0  0
    5.2986    2.0592    0.0000 H   0  0  0  0  0  0  0  0  0  0  0  0
    4.2041   -0.9478    0.0000 O   0  0  0  0  0  0  0  0  0  0  0  0
    1.6000   -0.0000    0.0000 C   0  0  0  0  0  0  0  0  0  0  0  0
    1.8779   -1.5757    0.0000 N   0  0  0  0  0  0  0  0  0  0  0  0
    3.3813   -2.1229    0.0000 H   0  0  0  0  0  0  0  0  0  0  0  0
    0.8494   -2.8014    0.0000 H   0  0  0  0  0  0  0  0  0  0  0  0
   -0.0001   -0.0000    0.0000 C   0  0  0  0  0  0  0  0  0  0  0  0
   -1.6000   -0.0000    0.0000 C   0  0  0  0  0  0  0  0  0  0  0  0
   -2.4000    1.3857    0.0000 C   0  0  0  0  0  0  0  0  0  0  0  0
   -1.6000    2.7713    0.0000 H   0  0  0  0  0  0  0  0  0  0  0  0
   -4.0000    1.3857    0.0000 C   0  0  0  0  0  0  0  0  0  0  0  0
   -4.8000    2.7713    0.0000 H   0  0  0  0  0  0  0  0  0  0  0  0
   -4.8000   -0.0000    0.0000 C   0  0  0  0  0  0  0  0  0  0  0  0
   -6.3999   -0.0000    0.0000 O   0  0  0  0  0  0  0  0  0  0  0  0
   -7.2000    1.3857    0.0000 H   0  0  0  0  0  0  0  0  0  0  0  0
   -4.0000   -1.3856    0.0000 C   0  0  0  0  0  0  0  0  0  0  0  0
   -4.8000   -2.7713    0.0000 H   0  0  0  0  0  0  0  0  0  0  0  0
   -2.4000   -1.3856    0.0000 C   0  0  0  0  0  0  0  0  0  0  0  0
   -1.6000   -2.7713    0.0000 H   0  0  0  0  0  0  0  0  0  0  0  0
   -0.0001   -1.6000    0.0000 H   0  0  0  0  0  0  0  0  0  0  0  0
   -0.0001    1.6000    0.0000 H   0  0  0  0  0  0  0  0  0  0  0  0
    1.3222    1.5757    0.0000 H   0  0  0  0  0  0  0  0  0  0  0  0
  1  2  1  0  0  0  0
  2  3  1  0  0  0  0
  1  4  2  0  0  0  0
  1  5  1  0  0  0  0
  5  6  1  0  0  0  0
  6  7  1  0  0  0  0
  6  8  1  0  0  0  0
  5  9  1  0  0  0  0
  9 10  1  0  0  0  0
 10 11  4  0  0  0  0
 11 12  1  0  0  0  0
 11 13  4  0  0  0  0
 13 14  1  0  0  0  0
 13 15  4  0  0  0  0
 15 16  1  0  0  0  0
 16 17  1  0  0  0  0
 15 18  4  0  0  0  0
 18 19  1  0  0  0  0
 18 20  4  0  0  0  0
 20 10  4  0  0  0  0
 20 21  1  0  0  0  0
  9 22  1  0  0  0  0
  9 23  1  0  0  0  0
  5 24  1  0  0  0  0
M  END
> <CAS>
60-18-4, 556-02-5, 556-03-6

> <NAME>
TYROSINE, D-Tyrosine, DL-TYROSINE

> <preferred_name>
L-Tyrosine

> <iupac>
L-tyrosine

> <SMILES>
N[C@@H](Cc1ccc(O)cc1)C(O)=O

> <Canonical_QSARr>
NC(Cc1ccc(O)cc1)C(O)=O

> <InChI_Code_QSARr>
InChI=1S/C9H11NO3/c10-8(9(12)13)5-6-1-3-7(11)4-2-6/h1-4,8,11H,5,10H2,(H,12,13)

> <InChI Key_QSARr>
OUYCCCASQSFEME-UHFFFAOYSA-N

> <Salt_Solvent>
?

> <WS Temperature>
24

> <WS Reference>
SEIDELL,A (1941)

> <dsstox_substance_id>
DTXSID1023730

> <LogMolar>
-2.59546666666667

$$$$
60-32-2
  -INDIGO-01081615412D

 22 21  0  0  0  0  0  0  0  0999 V2000
    5.6000   -1.3856    0.0000 O   0  0  0  0  0  0  0  0  0  0  0  0
    4.8000    0.0000    0.0000 C   0  0  0  0  0  0  0  0  0  0  0  0
    3.1999    0.0000    0.0000 C   0  0  0  0  0  0  0  0  0  0  0  0
    1.5999    0.0000    0.0000 C   0  0  0  0  0  0  0  0  0  0  0  0
    0.0001    0.0000    0.0000 C   0  0  0  0  0  0  0  0  0  0  0  0
   -1.5999    0.0000    0.0000 C   0  0  0  0  0  0  0  0  0  0  0  0
   -3.2000   -0.0000    0.0000 C   0  0  0  0  0  0  0  0  0  0  0  0
   -4.8000   -0.0000    0.0000 N   0  0  0  0  0  0  0  0  0  0  0  0
   -5.6000    1.3856    0.0000 H   0  0  0  0  0  0  0  0  0  0  0  0
   -5.6000   -1.3856    0.0000 H   0  0  0  0  0  0  0  0  0  0  0  0
   -3.2000    1.6000    0.0000 H   0  0  0  0  0  0  0  0  0  0  0  0
   -3.2000   -1.6000    0.0000 H   0  0  0  0  0  0  0  0  0  0  0  0
   -1.5999   -1.6000    0.0000 H   0  0  0  0  0  0  0  0  0  0  0  0
   -1.5999    1.6000    0.0000 H   0  0  0  0  0  0  0  0  0  0  0  0
    0.0001    1.6000    0.0000 H   0  0  0  0  0  0  0  0  0  0  0  0
    0.0001   -1.6000    0.0000 H   0  0  0  0  0  0  0  0  0  0  0  0
    1.5999   -1.6000    0.0000 H   0  0  0  0  0  0  0  0  0  0  0  0
    1.5999    1.6000    0.0000 H   0  0  0  0  0  0  0  0  0  0  0  0
    3.1999   -1.6000    0.0000 H   0  0  0  0  0  0  0  0  0  0  0  0
    3.1999    1.6000    0.0000 H   0  0  0  0  0  0  0  0  0  0  0  0
    5.6000    1.3856    0.0000 O   0  0  0  0  0  0  0  0  0  0  0  0
    7.2000   -1.3856    0.0000 H   0  0  0  0  0  0  0  0  0  0  0  0
  1  2  1  0  0  0  0
  2  3  1  0  0  0  0
  3  4  1  0  0  0  0
  4  5  1  0  0  0  0
  5  6  1  0  0  0  0
  6  7  1  0  0  0  0
  7  8  1  0  0  0  0
  8  9  1  0  0  0  0
  8 10  1  0  0  0  0
  7 11  1  0  0  0  0
  7 12  1  0  0  0  0
  6 13  1  0  0  0  0
  6 14  1  0  0  0  0
  5 15  1  0  0  0  0
  5 16  1  0  0  0  0
  4 17  1  0  0  0  0
  4 18  1  0  0  0  0
  3 19  1  0  0  0  0
  3 20  1  0  0  0  0
  2 21  2  0  0  0  0
  1 22  1  0  0  0  0
M  END
> <CAS>
60-32-2

> <NAME>
6-AMINOHEXANOIC ACID

> <preferred_name>
6-Aminocaproic acid

> <iupac>
6-aminohexanoic acid

> <SMILES>
NCCCCCC(O)=O

> <Canonical_QSARr>
NCCCCCC(O)=O

> <InChI_Code_QSARr>
InChI=1S/C6H13NO2/c7-5-3-1-2-4-6(8)9/h1-5,7H2,(H,8,9)

> <InChI Key_QSARr>
SLXKOJJOQWFEFD-UHFFFAOYSA-N

> <Salt_Solvent>
?

> <WS Temperature>
25

> <WS Reference>
YALKOWSKY,SH & DANNENFELSER,RM (1992)

> <dsstox_substance_id>
DTXSID0020070

> <LogMolar>
0.5854

$$$$
60-54-8
  -INDIGO-01081615412D

 56 59  0  0  0  0  0  0  0  0999 V2000
   -0.0001    1.6000    0.0000 C   0  0  0  0  0  0  0  0  0  0  0  0
   -0.5473    3.1035    0.0000 O   0  0  0  0  0  0  0  0  0  0  0  0
    0.4811    4.3292    0.0000 H   0  0  0  0  0  0  0  0  0  0  0  0
   -1.3856    2.4000    0.0000 C   0  0  0  0  0  0  0  0  0  0  0  0
   -1.3856    4.0000    0.0000 O   0  0  0  0  0  0  0  0  0  0  0  0
   -2.7713    4.8000    0.0000 H   0  0  0  0  0  0  0  0  0  0  0  0
   -2.7713    1.6000    0.0000 C   0  0  0  0  0  0  0  0  0  0  0  0
   -4.1569    2.4000    0.0000 C   0  0  0  0  0  0  0  0  0  0  0  0
   -5.5426    1.6000    0.0000 C   0  0  0  0  0  0  0  0  0  0  0  0
   -6.9281    2.4000    0.0000 C   0  0  0  0  0  0  0  0  0  0  0  0
   -6.9281    4.0000    0.0000 O   0  0  0  0  0  0  0  0  0  0  0  0
   -8.3138    4.8000    0.0000 H   0  0  0  0  0  0  0  0  0  0  0  0
   -8.3138    1.6000    0.0000 C   0  0  0  0  0  0  0  0  0  0  0  0
   -9.6995    2.4000    0.0000 H   0  0  0  0  0  0  0  0  0  0  0  0
   -8.3138    0.0000    0.0000 C   0  0  0  0  0  0  0  0  0  0  0  0
   -9.6995   -0.8000    0.0000 H   0  0  0  0  0  0  0  0  0  0  0  0
   -6.9281   -0.8000    0.0000 C   0  0  0  0  0  0  0  0  0  0  0  0
   -7.7282   -2.1856    0.0000 H   0  0  0  0  0  0  0  0  0  0  0  0
   -5.5426    0.0000    0.0000 C   0  0  0  0  0  0  0  0  0  0  0  0
   -4.1569   -0.8000    0.0000 C   0  0  0  0  0  0  0  0  0  0  0  0
   -5.1853   -2.0256    0.0000 C   0  0  0  0  0  0  0  0  0  0  0  0
   -4.6382   -3.5292    0.0000 H   0  0  0  0  0  0  0  0  0  0  0  0
   -6.2139   -3.2513    0.0000 H   0  0  0  0  0  0  0  0  0  0  0  0
   -6.7611   -1.7478    0.0000 H   0  0  0  0  0  0  0  0  0  0  0  0
   -3.1286   -2.0256    0.0000 O   0  0  0  0  0  0  0  0  0  0  0  0
   -3.6757   -3.5292    0.0000 H   0  0  0  0  0  0  0  0  0  0  0  0
   -2.7713    0.0000    0.0000 C   0  0  0  0  0  0  0  0  0  0  0  0
   -2.2241   -1.5035    0.0000 H   0  0  0  0  0  0  0  0  0  0  0  0
   -1.3856   -0.8000    0.0000 C   0  0  0  0  0  0  0  0  0  0  0  0
   -1.6634   -2.3757    0.0000 H   0  0  0  0  0  0  0  0  0  0  0  0
   -0.8384   -2.3035    0.0000 H   0  0  0  0  0  0  0  0  0  0  0  0
   -0.0001    0.0000    0.0000 C   0  0  0  0  0  0  0  0  0  0  0  0
   -0.0001   -1.6000    0.0000 H   0  0  0  0  0  0  0  0  0  0  0  0
    1.3856   -0.8000    0.0000 C   0  0  0  0  0  0  0  0  0  0  0  0
    2.4142   -2.0256    0.0000 N   0  0  0  0  0  0  0  0  0  0  0  0
    3.9897   -1.7478    0.0000 C   0  0  0  0  0  0  0  0  0  0  0  0
    5.0183   -2.9736    0.0000 H   0  0  0  0  0  0  0  0  0  0  0  0
    5.5655   -1.4701    0.0000 H   0  0  0  0  0  0  0  0  0  0  0  0
    3.4426   -3.2513    0.0000 H   0  0  0  0  0  0  0  0  0  0  0  0
    1.8668   -3.5292    0.0000 C   0  0  0  0  0  0  0  0  0  0  0  0
    2.8954   -4.7548    0.0000 H   0  0  0  0  0  0  0  0  0  0  0  0
    1.3197   -5.0327    0.0000 H   0  0  0  0  0  0  0  0  0  0  0  0
    0.2913   -3.8070    0.0000 H   0  0  0  0  0  0  0  0  0  0  0  0
    0.8384   -2.3035    0.0000 H   0  0  0  0  0  0  0  0  0  0  0  0
    2.7713    0.0000    0.0000 C   0  0  0  0  0  0  0  0  0  0  0  0
    4.1570   -0.8000    0.0000 O   0  0  0  0  0  0  0  0  0  0  0  0
    5.5427    0.0000    0.0000 H   0  0  0  0  0  0  0  0  0  0  0  0
    2.7713    1.6000    0.0000 C   0  0  0  0  0  0  0  0  0  0  0  0
    4.1570    2.4000    0.0000 C   0  0  0  0  0  0  0  0  0  0  0  0
    4.1570    4.0000    0.0000 N   0  0  0  0  0  0  0  0  0  0  0  0
    5.5427    4.8000    0.0000 H   0  0  0  0  0  0  0  0  0  0  0  0
    2.7713    4.8000    0.0000 H   0  0  0  0  0  0  0  0  0  0  0  0
    5.5427    1.6000    0.0000 O   0  0  0  0  0  0  0  0  0  0  0  0
    1.3856    2.4000    0.0000 C   0  0  0  0  0  0  0  0  0  0  0  0
    1.3856    4.0000    0.0000 O   0  0  0  0  0  0  0  0  0  0  0  0
   -4.1569    4.0000    0.0000 O   0  0  0  0  0  0  0  0  0  0  0  0
  1  2  1  0  0  0  0
  2  3  1  0  0  0  0
  1  4  1  0  0  0  0
  4  5  1  0  0  0  0
  5  6  1  0  0  0  0
  4  7  2  0  0  0  0
  7  8  1  0  0  0  0
  8  9  1  0  0  0  0
  9 10  4  0  0  0  0
 10 11  1  0  0  0  0
 11 12  1  0  0  0  0
 10 13  4  0  0  0  0
 13 14  1  0  0  0  0
 13 15  4  0  0  0  0
 15 16  1  0  0  0  0
 15 17  4  0  0  0  0
 17 18  1  0  0  0  0
 17 19  4  0  0  0  0
 19  9  4  0  0  0  0
 19 20  1  0  0  0  0
 20 21  1  0  0  0  0
 21 22  1  0  0  0  0
 21 23  1  0  0  0  0
 21 24  1  0  0  0  0
 20 25  1  0  0  0  0
 25 26  1  0  0  0  0
 20 27  1  0  0  0  0
 27  7  1  0  0  0  0
 27 28  1  0  0  0  0
 27 29  1  0  0  0  0
 29 30  1  0  0  0  0
 29 31  1  0  0  0  0
 29 32  1  0  0  0  0
 32  1  1  0  0  0  0
 32 33  1  0  0  0  0
 32 34  1  0  0  0  0
 34 35  1  0  0  0  0
 35 36  1  0  0  0  0
 36 37  1  0  0  0  0
 36 38  1  0  0  0  0
 36 39  1  0  0  0  0
 35 40  1  0  0  0  0
 40 41  1  0  0  0  0
 40 42  1  0  0  0  0
 40 43  1  0  0  0  0
 34 44  1  0  0  0  0
 34 45  1  0  0  0  0
 45 46  1  0  0  0  0
 46 47  1  0  0  0  0
 45 48  2  0  0  0  0
 48 49  1  0  0  0  0
 49 50  1  0  0  0  0
 50 51  1  0  0  0  0
 50 52  1  0  0  0  0
 49 53  2  0  0  0  0
 48 54  1  0  0  0  0
 54  1  1  0  0  0  0
 54 55  2  0  0  0  0
  8 56  2  0  0  0  0
M  END
> <CAS>
60-54-8

> <NAME>
TETRACYCLINE

> <preferred_name>
Tetracycline

> <iupac>
(4S,4aS,5aS,6S,12aS)-4-(dimethylamino)-3,6,10,12,12a-pentahydroxy-6-methyl-1,11-dioxo-1,4,4a,5,5a,6,11,12a-octahydrotetracene-2-carboxamide

> <SMILES>
C[C@]1(O)[C@H]2C[C@H]3[C@@H](C(O)=C(C(N)=O)C(=O)[C@@]3(O)C(O)=C2C(=O)c2c1cccc2O)N(C)C

> <Canonical_QSARr>
CC1(O)C2CC3C(C(O)=C(C(N)=O)C(=O)C3(O)C(O)=C2C(=O)c2c1cccc2O)N(C)C

> <InChI_Code_QSARr>
InChI=1S/C22H24N2O8/c1-21(31)8-5-4-6-11(25)12(8)16(26)13-9(21)7-10-15(24(2)3)17(27)14(20(23)30)19(29)22(10,32)18(13)28/h4-6,9-10,15,25,27-28,31-32H,7H2,1-3H3,(H2,23,30)

> <InChI Key_QSARr>
OFVLGDICTFRJMM-UHFFFAOYSA-N

> <Salt_Solvent>
?

> <WS Temperature>
25

> <WS Reference>
YALKOWSKY,SH & DANNENFELSER,RM (1992)

> <dsstox_substance_id>
DTXSID7023645

> <LogMolar>
-3.284

$$$$
60-87-7
  -INDIGO-01081615412D

 40 42  0  0  0  0  0  0  0  0999 V2000
   -5.5999    4.1569    0.0000 C   0  0  0  0  0  0  0  0  0  0  0  0
   -4.0001    4.1569    0.0000 C   0  0  0  0  0  0  0  0  0  0  0  0
   -3.2001    5.5426    0.0000 H   0  0  0  0  0  0  0  0  0  0  0  0
   -3.2001    2.7712    0.0000 C   0  0  0  0  0  0  0  0  0  0  0  0
   -1.6000    2.7712    0.0000 H   0  0  0  0  0  0  0  0  0  0  0  0
   -4.0001    1.3856    0.0000 C   0  0  0  0  0  0  0  0  0  0  0  0
   -3.2001   -0.0001    0.0000 N   0  0  0  0  0  0  0  0  0  0  0  0
   -4.0001   -1.3856    0.0000 C   0  0  0  0  0  0  0  0  0  0  0  0
   -3.2001   -2.7712    0.0000 C   0  0  0  0  0  0  0  0  0  0  0  0
   -1.6000   -2.7712    0.0000 H   0  0  0  0  0  0  0  0  0  0  0  0
   -4.0001   -4.1569    0.0000 C   0  0  0  0  0  0  0  0  0  0  0  0
   -3.2001   -5.5426    0.0000 H   0  0  0  0  0  0  0  0  0  0  0  0
   -5.5999   -4.1569    0.0000 C   0  0  0  0  0  0  0  0  0  0  0  0
   -6.4000   -5.5426    0.0000 H   0  0  0  0  0  0  0  0  0  0  0  0
   -6.4000   -2.7712    0.0000 C   0  0  0  0  0  0  0  0  0  0  0  0
   -8.0000   -2.7712    0.0000 H   0  0  0  0  0  0  0  0  0  0  0  0
   -5.5999   -1.3856    0.0000 C   0  0  0  0  0  0  0  0  0  0  0  0
   -6.4000   -0.0001    0.0000 S   0  0  0  0  0  0  0  0  0  0  0  0
   -5.5999    1.3856    0.0000 C   0  0  0  0  0  0  0  0  0  0  0  0
   -6.4000    2.7712    0.0000 C   0  0  0  0  0  0  0  0  0  0  0  0
   -8.0000    2.7712    0.0000 H   0  0  0  0  0  0  0  0  0  0  0  0
   -1.6000   -0.0001    0.0000 C   0  0  0  0  0  0  0  0  0  0  0  0
    0.0000   -0.0001    0.0000 C   0  0  0  0  0  0  0  0  0  0  0  0
    1.5035   -0.5473    0.0000 N   0  0  0  0  0  0  0  0  0  0  0  0
    1.7813   -2.1229    0.0000 C   0  0  0  0  0  0  0  0  0  0  0  0
    2.0592   -3.6987    0.0000 H   0  0  0  0  0  0  0  0  0  0  0  0
    3.2848   -2.6701    0.0000 H   0  0  0  0  0  0  0  0  0  0  0  0
    0.5557   -3.1513    0.0000 H   0  0  0  0  0  0  0  0  0  0  0  0
    2.7292    0.4813    0.0000 C   0  0  0  0  0  0  0  0  0  0  0  0
    4.2327   -0.0661    0.0000 H   0  0  0  0  0  0  0  0  0  0  0  0
    3.9549    1.5097    0.0000 H   0  0  0  0  0  0  0  0  0  0  0  0
    3.0071   -1.0945    0.0000 H   0  0  0  0  0  0  0  0  0  0  0  0
    0.0000    1.6001    0.0000 C   0  0  0  0  0  0  0  0  0  0  0  0
    0.0000    3.2000    0.0000 H   0  0  0  0  0  0  0  0  0  0  0  0
    1.3856    2.4000    0.0000 H   0  0  0  0  0  0  0  0  0  0  0  0
    1.3856    0.8000    0.0000 H   0  0  0  0  0  0  0  0  0  0  0  0
    0.0000   -1.6001    0.0000 H   0  0  0  0  0  0  0  0  0  0  0  0
   -1.6000    1.6001    0.0000 H   0  0  0  0  0  0  0  0  0  0  0  0
   -1.6000   -1.6001    0.0000 H   0  0  0  0  0  0  0  0  0  0  0  0
   -6.4000    5.5426    0.0000 H   0  0  0  0  0  0  0  0  0  0  0  0
  1  2  4  0  0  0  0
  2  3  1  0  0  0  0
  2  4  4  0  0  0  0
  4  5  1  0  0  0  0
  4  6  4  0  0  0  0
  6  7  1  0  0  0  0
  7  8  1  0  0  0  0
  8  9  4  0  0  0  0
  9 10  1  0  0  0  0
  9 11  4  0  0  0  0
 11 12  1  0  0  0  0
 11 13  4  0  0  0  0
 13 14  1  0  0  0  0
 13 15  4  0  0  0  0
 15 16  1  0  0  0  0
 15 17  4  0  0  0  0
 17  8  4  0  0  0  0
 17 18  1  0  0  0  0
 18 19  1  0  0  0  0
 19  6  4  0  0  0  0
 19 20  4  0  0  0  0
 20  1  4  0  0  0  0
 20 21  1  0  0  0  0
  7 22  1  0  0  0  0
 22 23  1  0  0  0  0
 23 24  1  0  0  0  0
 24 25  1  0  0  0  0
 25 26  1  0  0  0  0
 25 27  1  0  0  0  0
 25 28  1  0  0  0  0
 24 29  1  0  0  0  0
 29 30  1  0  0  0  0
 29 31  1  0  0  0  0
 29 32  1  0  0  0  0
 23 33  1  0  0  0  0
 33 34  1  0  0  0  0
 33 35  1  0  0  0  0
 33 36  1  0  0  0  0
 23 37  1  0  0  0  0
 22 38  1  0  0  0  0
 22 39  1  0  0  0  0
  1 40  1  0  0  0  0
M  END
> <CAS>
60-87-7

> <NAME>
PROMETHAZINE

> <preferred_name>
Promethazine

> <iupac>
N,N-dimethyl-1-(10H-phenothiazin-10-yl)propan-2-amine

> <SMILES>
CN(C)C(C)CN1c2ccccc2Sc2ccccc12

> <Canonical_QSARr>
CN(C)C(C)CN1c2ccccc2Sc2ccccc12

> <InChI_Code_QSARr>
InChI=1S/C17H20N2S/c1-13(18(2)3)12-19-14-8-4-6-10-16(14)20-17-11-7-5-9-15(17)19/h4-11,13H,12H2,1-3H3

> <InChI Key_QSARr>
PWWVAXIEGOYWEE-UHFFFAOYSA-N

> <Salt_Solvent>
?

> <WS Temperature>
24

> <WS Reference>
YALKOWSKY,SH & DANNENFELSER,RM (1992)

> <dsstox_substance_id>
DTXSID7023518

> <LogMolar>
-4.2597

$$$$
61-57-4
  -INDIGO-01081615412D

 20 21  0  0  0  0  0  0  0  0999 V2000
    7.4670    3.1821    0.0000 O   0  0  0  0  0  0  0  0  0  0  0  0
    5.9452    3.6765    0.0000 N   0  0  0  0  0  0  0  0  0  0  0  0
    4.7562    2.6059    0.0000 C   0  0  0  0  0  0  0  0  0  0  0  0
    3.1913    2.9385    0.0000 S   0  0  0  1  0  0  0  0  0  0  0  0
    2.3912    1.5528    0.0000 C   0  0  0  0  0  0  0  0  0  0  0  0
    0.8000    1.3857    0.0000 N   0  0  0  0  0  0  0  0  0  0  0  0
   -0.2706    2.5746    0.0000 C   0  0  0  0  0  0  0  0  0  0  0  0
    0.0621    4.1398    0.0000 O   0  0  0  0  0  0  0  0  0  0  0  0
   -1.7323    1.9238    0.0000 N   0  0  0  0  0  0  0  0  0  0  0  0
   -3.1180    2.7238    0.0000 H   0  0  0  0  0  0  0  0  0  0  0  0
   -1.5651    0.3327    0.0000 C   0  0  0  0  0  0  0  0  0  0  0  0
   -3.1650    0.3327    0.0000 H   0  0  0  0  0  0  0  0  0  0  0  0
   -1.7323   -1.2585    0.0000 H   0  0  0  0  0  0  0  0  0  0  0  0
   -0.0000   -0.0000    0.0000 C   0  0  0  0  0  0  0  0  0  0  0  0
   -0.4945   -1.5217    0.0000 H   0  0  0  0  0  0  0  0  0  0  0  0
    1.4617   -0.6508    0.0000 H   0  0  0  0  0  0  0  0  0  0  0  0
    3.4619    0.3639    0.0000 N   0  0  0  1  0  0  0  0  0  0  0  0
    4.9235    1.0147    0.0000 C   0  0  0  0  0  0  0  0  0  0  0  0
    6.3091    0.2146    0.0000 H   0  0  0  0  0  0  0  0  0  0  0  0
    5.6127    5.2415    0.0000 O   0  0  0  0  0  0  0  0  0  0  0  0
  1  2  1  0  0  0  0
  2  3  1  0  0  0  0
  3  4  4  0  0  0  0
  4  5  4  0  0  0  0
  5  6  1  0  0  0  0
  6  7  1  0  0  0  0
  7  8  2  0  0  0  0
  7  9  1  0  0  0  0
  9 10  1  0  0  0  0
  9 11  1  0  0  0  0
 11 12  1  0  0  0  0
 11 13  1  0  0  0  0
 11 14  1  0  0  0  0
 14  6  1  0  0  0  0
 14 15  1  0  0  0  0
 14 16  1  0  0  0  0
  5 17  4  0  0  0  0
 17 18  4  0  0  0  0
 18  3  4  0  0  0  0
 18 19  1  0  0  0  0
  2 20  2  0  0  0  0
M  CHG  2   1  -1   2   1
M  END
> <CAS>
61-57-4

> <NAME>
NIRIDAZOLE

> <preferred_name>
Niridazole

> <iupac>
1-(5-nitro-1,3-thiazol-2-yl)imidazolidin-2-one

> <SMILES>
[O-][N+](=O)c1c[n]c([s]1)N1CCNC1=O

> <Canonical_QSARr>
[O-][N+](=O)c1c[n]c([s]1)N1CCNC1=O

> <InChI_Code_QSARr>
InChI=1S/C6H6N4O3S/c11-5-7-1-2-9(5)6-8-3-4(14-6)10(12)13/h3H,1-2H2,(H,7,11)

> <InChI Key_QSARr>
RDXLYGJSWZYTFJ-UHFFFAOYSA-N

> <Salt_Solvent>
?

> <WS Temperature>
25

> <WS Reference>
YALKOWSKY,SH & DANNENFELSER,RM (1992)

> <dsstox_substance_id>
DTXSID6045244

> <LogMolar>
-3.2169

$$$$
61-73-4
  -INDIGO-01081615412D

 38 40  0  0  0  0  0  0  0  0999 V2000
    4.1570    0.8000    0.0000 S   0  0  0  1  0  0  0  0  0  0  0  0
    5.5426   -0.0001    0.0000 C   0  0  0  0  0  0  0  0  0  0  0  0
    5.5426   -1.5999    0.0000 C   0  0  0  0  0  0  0  0  0  0  0  0
    6.9282   -2.4000    0.0000 C   0  0  0  0  0  0  0  0  0  0  0  0
    8.3138   -1.5999    0.0000 C   0  0  0  0  0  0  0  0  0  0  0  0
    8.3138   -0.0001    0.0000 C   0  0  0  0  0  0  0  0  0  0  0  0
    9.6996    0.8000    0.0000 N   0  0  0  0  0  0  0  0  0  0  0  0
   11.0852   -0.0001    0.0000 C   0  0  0  0  0  0  0  0  0  0  0  0
   12.4708   -0.8000    0.0000 H   0  0  0  0  0  0  0  0  0  0  0  0
   12.4708    0.8000    0.0000 H   0  0  0  0  0  0  0  0  0  0  0  0
   11.0852   -1.6001    0.0000 H   0  0  0  0  0  0  0  0  0  0  0  0
    9.6996    2.4000    0.0000 C   0  0  0  0  0  0  0  0  0  0  0  0
    9.6996    4.0000    0.0000 H   0  0  0  0  0  0  0  0  0  0  0  0
   11.0852    3.1999    0.0000 H   0  0  0  0  0  0  0  0  0  0  0  0
    8.3138    3.1999    0.0000 H   0  0  0  0  0  0  0  0  0  0  0  0
    6.9282    0.8000    0.0000 C   0  0  0  0  0  0  0  0  0  0  0  0
    6.9282    2.4000    0.0000 H   0  0  0  0  0  0  0  0  0  0  0  0
    9.6996   -2.4000    0.0000 H   0  0  0  0  0  0  0  0  0  0  0  0
    6.9282   -4.0000    0.0000 H   0  0  0  0  0  0  0  0  0  0  0  0
    4.1570   -2.4000    0.0000 N   0  0  0  1  0  0  0  0  0  0  0  0
    2.7712   -1.6001    0.0000 C   0  0  0  0  0  0  0  0  0  0  0  0
    1.3856   -2.4000    0.0000 C   0  0  0  0  0  0  0  0  0  0  0  0
    0.0001   -1.6001    0.0000 C   0  0  0  0  0  0  0  0  0  0  0  0
    0.0001   -0.0001    0.0000 C   0  0  0  0  0  0  0  0  0  0  0  0
   -1.3855    0.8000    0.0000 N   0  0  0  0  0  0  0  0  0  0  0  0
   -2.7713    0.0001    0.0000 C   0  0  0  0  0  0  0  0  0  0  0  0
   -4.1569   -0.8000    0.0000 H   0  0  0  0  0  0  0  0  0  0  0  0
   -4.1569    0.8000    0.0000 H   0  0  0  0  0  0  0  0  0  0  0  0
   -2.7713   -1.6001    0.0000 H   0  0  0  0  0  0  0  0  0  0  0  0
   -1.3855    2.4000    0.0000 C   0  0  0  0  0  0  0  0  0  0  0  0
   -1.3855    4.0000    0.0000 H   0  0  0  0  0  0  0  0  0  0  0  0
   -2.7713    3.2001    0.0000 H   0  0  0  0  0  0  0  0  0  0  0  0
    0.0001    3.2001    0.0000 H   0  0  0  0  0  0  0  0  0  0  0  0
    1.3856    0.8000    0.0000 C   0  0  0  0  0  0  0  0  0  0  0  0
    1.3856    2.4000    0.0000 H   0  0  0  0  0  0  0  0  0  0  0  0
    2.7712    0.0001    0.0000 C   0  0  0  0  0  0  0  0  0  0  0  0
   -1.3855   -2.4000    0.0000 H   0  0  0  0  0  0  0  0  0  0  0  0
    1.3856   -4.0000    0.0000 H   0  0  0  0  0  0  0  0  0  0  0  0
  1  2  4  0  0  0  0
  2  3  4  0  0  0  0
  3  4  4  0  0  0  0
  4  5  4  0  0  0  0
  5  6  4  0  0  0  0
  6  7  1  0  0  0  0
  7  8  1  0  0  0  0
  8  9  1  0  0  0  0
  8 10  1  0  0  0  0
  8 11  1  0  0  0  0
  7 12  1  0  0  0  0
 12 13  1  0  0  0  0
 12 14  1  0  0  0  0
 12 15  1  0  0  0  0
  6 16  4  0  0  0  0
 16  2  4  0  0  0  0
 16 17  1  0  0  0  0
  5 18  1  0  0  0  0
  4 19  1  0  0  0  0
  3 20  4  0  0  0  0
 20 21  4  0  0  0  0
 21 22  4  0  0  0  0
 22 23  4  0  0  0  0
 23 24  4  0  0  0  0
 24 25  1  0  0  0  0
 25 26  1  0  0  0  0
 26 27  1  0  0  0  0
 26 28  1  0  0  0  0
 26 29  1  0  0  0  0
 25 30  1  0  0  0  0
 30 31  1  0  0  0  0
 30 32  1  0  0  0  0
 30 33  1  0  0  0  0
 24 34  4  0  0  0  0
 34 35  1  0  0  0  0
 34 36  4  0  0  0  0
 36  1  4  0  0  0  0
 36 21  4  0  0  0  0
 23 37  1  0  0  0  0
 22 38  1  0  0  0  0
M  CHG  1   1   1
M  END
> <CAS>
61-73-4

> <NAME>
METHYLENE BLUE

> <preferred_name>
Methylene blue

> <iupac>
3,7-bis(dimethylamino)phenothiazin-5-ium chloride

> <SMILES>
[Cl-].CN(C)c1cc2[s+]c3cc(ccc3[n]c2cc1)N(C)C

> <Canonical_QSARr>
CN(C)c1cc2[s+]c3cc(ccc3[n]c2cc1)N(C)C

> <InChI_Code_QSARr>
InChI=1S/C16H18N3S/c1-18(2)11-5-7-13-15(9-11)20-16-10-12(19(3)4)6-8-14(16)17-13/h5-10H,1-4H3/q+1

> <InChI Key_QSARr>
RBTBFTRPCNLSDE-UHFFFAOYSA-N

> <Salt_Solvent>
[Cl-]

> <WS Temperature>
25

> <WS Reference>
BAUGHMAN,GL ET AL. (1993)

> <dsstox_substance_id>
DTXSID0023296

> <LogMolar>
-0.8655

$$$$
62-56-6
  -INDIGO-01081615412D

  8  7  0  0  0  0  0  0  0  0999 V2000
    1.3856    0.8000    0.0000 N   0  0  0  0  0  0  0  0  0  0  0  0
   -0.0000    0.0000    0.0000 C   0  0  0  0  0  0  0  0  0  0  0  0
   -1.3856    0.8000    0.0000 N   0  0  0  0  0  0  0  0  0  0  0  0
   -2.7713    0.0000    0.0000 H   0  0  0  0  0  0  0  0  0  0  0  0
   -1.3856    2.4000    0.0000 H   0  0  0  0  0  0  0  0  0  0  0  0
    0.0000   -1.6000    0.0000 S   0  0  0  0  0  0  0  0  0  0  0  0
    2.7713    0.0000    0.0000 H   0  0  0  0  0  0  0  0  0  0  0  0
    1.3856    2.4000    0.0000 H   0  0  0  0  0  0  0  0  0  0  0  0
  1  2  1  0  0  0  0
  2  3  1  0  0  0  0
  3  4  1  0  0  0  0
  3  5  1  0  0  0  0
  2  6  2  0  0  0  0
  1  7  1  0  0  0  0
  1  8  1  0  0  0  0
M  END
> <CAS>
62-56-6

> <NAME>
THIOUREA

> <preferred_name>
Thiourea

> <iupac>
thiourea

> <SMILES>
NC(N)=S

> <Canonical_QSARr>
NC(N)=S

> <InChI_Code_QSARr>
InChI=1S/CH4N2S/c2-1(3)4/h(H4,2,3,4)

> <InChI Key_QSARr>
UMGDCJDMYOKAJW-UHFFFAOYSA-N

> <Salt_Solvent>
?

> <WS Temperature>
25

> <WS Reference>
SEIDELL,A (1941)

> <dsstox_substance_id>
DTXSID9021348

> <LogMolar>
0.2708

$$$$
62-75-9
  -INDIGO-01081615412D

 11 10  0  0  0  0  0  0  0  0999 V2000
    1.3856    0.8000    0.0000 C   0  0  0  0  0  0  0  0  0  0  0  0
   -0.0000    0.0000    0.0000 N   0  0  0  0  0  0  0  0  0  0  0  0
   -1.3856    0.8000    0.0000 C   0  0  0  0  0  0  0  0  0  0  0  0
   -2.7713    1.6000    0.0000 H   0  0  0  0  0  0  0  0  0  0  0  0
   -2.7713    0.0000    0.0000 H   0  0  0  0  0  0  0  0  0  0  0  0
   -1.3856    2.4000    0.0000 H   0  0  0  0  0  0  0  0  0  0  0  0
    0.0000   -1.6000    0.0000 N   0  0  0  0  0  0  0  0  0  0  0  0
    1.3856   -2.4000    0.0000 O   0  0  0  0  0  0  0  0  0  0  0  0
    2.7713    1.6000    0.0000 H   0  0  0  0  0  0  0  0  0  0  0  0
    2.7713    0.0000    0.0000 H   0  0  0  0  0  0  0  0  0  0  0  0
    1.3856    2.4000    0.0000 H   0  0  0  0  0  0  0  0  0  0  0  0
  1  2  1  0  0  0  0
  2  3  1  0  0  0  0
  3  4  1  0  0  0  0
  3  5  1  0  0  0  0
  3  6  1  0  0  0  0
  2  7  1  0  0  0  0
  7  8  2  0  0  0  0
  1  9  1  0  0  0  0
  1 10  1  0  0  0  0
  1 11  1  0  0  0  0
M  END
> <CAS>
62-75-9

> <NAME>
N-NITROSODIMETHYLAMINE

> <preferred_name>
N-Nitrosodimethylamine

> <iupac>
N-methyl-N-nitrosomethanamine

> <SMILES>
CN(C)N=O

> <Canonical_QSARr>
CN(C)N=O

> <InChI_Code_QSARr>
InChI=1S/C2H6N2O/c1-4(2)3-5/h1-2H3

> <InChI Key_QSARr>
UMFJAHHVKNCGLG-UHFFFAOYSA-N

> <Salt_Solvent>
?

> <WS Temperature>
24

> <WS Reference>
YALKOWSKY,SH & DANNENFELSER,RM (1992)

> <dsstox_substance_id>
DTXSID7021029

> <LogMolar>
1.1303

$$$$
63-74-1
  -INDIGO-01081615412D

 19 19  0  0  0  0  0  0  0  0999 V2000
    1.6000   -0.0000    0.0000 S   0  0  0  0  0  0  0  0  0  0  0  0
    3.2000   -0.0000    0.0000 N   0  0  0  0  0  0  0  0  0  0  0  0
    4.0000   -1.3856    0.0000 H   0  0  0  0  0  0  0  0  0  0  0  0
    4.0000    1.3856    0.0000 H   0  0  0  0  0  0  0  0  0  0  0  0
    1.6000   -1.6000    0.0000 O   0  0  0  0  0  0  0  0  0  0  0  0
    1.6000    1.6000    0.0000 O   0  0  0  0  0  0  0  0  0  0  0  0
    0.0000   -0.0000    0.0000 C   0  0  0  0  0  0  0  0  0  0  0  0
   -0.8001    1.3856    0.0000 C   0  0  0  0  0  0  0  0  0  0  0  0
    0.0000    2.7713    0.0000 H   0  0  0  0  0  0  0  0  0  0  0  0
   -2.4000    1.3856    0.0000 C   0  0  0  0  0  0  0  0  0  0  0  0
   -3.2000    2.7713    0.0000 H   0  0  0  0  0  0  0  0  0  0  0  0
   -3.2000   -0.0000    0.0000 C   0  0  0  0  0  0  0  0  0  0  0  0
   -4.8000   -0.0000    0.0000 N   0  0  0  0  0  0  0  0  0  0  0  0
   -5.6000    1.3856    0.0000 H   0  0  0  0  0  0  0  0  0  0  0  0
   -5.6000   -1.3856    0.0000 H   0  0  0  0  0  0  0  0  0  0  0  0
   -2.4000   -1.3856    0.0000 C   0  0  0  0  0  0  0  0  0  0  0  0
   -3.2000   -2.7713    0.0000 H   0  0  0  0  0  0  0  0  0  0  0  0
   -0.8001   -1.3856    0.0000 C   0  0  0  0  0  0  0  0  0  0  0  0
    0.0000   -2.7713    0.0000 H   0  0  0  0  0  0  0  0  0  0  0  0
  1  2  1  0  0  0  0
  2  3  1  0  0  0  0
  2  4  1  0  0  0  0
  1  5  2  0  0  0  0
  1  6  2  0  0  0  0
  1  7  1  0  0  0  0
  7  8  4  0  0  0  0
  8  9  1  0  0  0  0
  8 10  4  0  0  0  0
 10 11  1  0  0  0  0
 10 12  4  0  0  0  0
 12 13  1  0  0  0  0
 13 14  1  0  0  0  0
 13 15  1  0  0  0  0
 12 16  4  0  0  0  0
 16 17  1  0  0  0  0
 16 18  4  0  0  0  0
 18  7  4  0  0  0  0
 18 19  1  0  0  0  0
M  END
> <CAS>
63-74-1

> <NAME>
SULFANILAMIDE

> <preferred_name>
Sulfanilamide

> <iupac>
4-aminobenzenesulfonamide

> <SMILES>
Nc1ccc(cc1)S(N)(=O)=O

> <Canonical_QSARr>
Nc1ccc(cc1)S(N)(=O)=O

> <InChI_Code_QSARr>
InChI=1S/C6H8N2O2S/c7-5-1-3-6(4-2-5)11(8,9)10/h1-4H,7H2,(H2,8,9,10)

> <InChI Key_QSARr>
FDDDEECHVMSUSB-UHFFFAOYSA-N

> <Salt_Solvent>
?

> <WS Temperature>
25

> <WS Reference>
MERCK INDEX (1976)

> <dsstox_substance_id>
DTXSID4023622

> <LogMolar>
-1.361

$$$$
64-17-5
  -INDIGO-01081615412D

  9  8  0  0  0  0  0  0  0  0999 V2000
    1.6000    0.0000    0.0000 C   0  0  0  0  0  0  0  0  0  0  0  0
   -0.0000    0.0000    0.0000 C   0  0  0  0  0  0  0  0  0  0  0  0
   -1.6000   -0.0000    0.0000 O   0  0  0  0  0  0  0  0  0  0  0  0
   -2.4000   -1.3856    0.0000 H   0  0  0  0  0  0  0  0  0  0  0  0
   -0.0000    1.6000    0.0000 H   0  0  0  0  0  0  0  0  0  0  0  0
   -0.0000   -1.6000    0.0000 H   0  0  0  0  0  0  0  0  0  0  0  0
    3.2000    0.0000    0.0000 H   0  0  0  0  0  0  0  0  0  0  0  0
    2.4000   -1.3856    0.0000 H   0  0  0  0  0  0  0  0  0  0  0  0
    2.4000    1.3856    0.0000 H   0  0  0  0  0  0  0  0  0  0  0  0
  1  2  1  0  0  0  0
  2  3  1  0  0  0  0
  3  4  1  0  0  0  0
  2  5  1  0  0  0  0
  2  6  1  0  0  0  0
  1  7  1  0  0  0  0
  1  8  1  0  0  0  0
  1  9  1  0  0  0  0
M  END
> <CAS>
64-17-5

> <NAME>
ETHANOL

> <preferred_name>
Ethanol

> <iupac>
ethanol

> <SMILES>
CCO

> <Canonical_QSARr>
CCO

> <InChI_Code_QSARr>
InChI=1S/C2H6O/c1-2-3/h3H,2H2,1H3

> <InChI Key_QSARr>
LFQSCWFLJHTTHZ-UHFFFAOYSA-N

> <Salt_Solvent>
?

> <WS Temperature>
25

> <WS Reference>
RIDDICK,JA ET AL. (1986)

> <dsstox_substance_id>
DTXSID9020584

> <LogMolar>
1.3366

$$$$
64-67-5
  -INDIGO-01081615412D

 19 18  0  0  0  0  0  0  0  0999 V2000
    1.3856   -0.8000    0.0000 C   0  0  0  0  0  0  0  0  0  0  0  0
   -0.0000    0.0000    0.0000 C   0  0  0  0  0  0  0  0  0  0  0  0
   -1.3857    0.8000    0.0000 O   0  0  0  0  0  0  0  0  0  0  0  0
   -2.7712    0.0000    0.0000 S   0  0  0  0  0  0  0  0  0  0  0  0
   -3.5713    1.3857    0.0000 O   0  0  0  0  0  0  0  0  0  0  0  0
   -1.9713   -1.3857    0.0000 O   0  0  0  0  0  0  0  0  0  0  0  0
   -4.1569   -0.8000    0.0000 O   0  0  0  0  0  0  0  0  0  0  0  0
   -5.5425   -0.0000    0.0000 C   0  0  0  0  0  0  0  0  0  0  0  0
   -6.9282    0.8000    0.0000 C   0  0  0  0  0  0  0  0  0  0  0  0
   -8.3138    1.6000    0.0000 H   0  0  0  0  0  0  0  0  0  0  0  0
   -8.3138   -0.0000    0.0000 H   0  0  0  0  0  0  0  0  0  0  0  0
   -6.9282    2.4000    0.0000 H   0  0  0  0  0  0  0  0  0  0  0  0
   -6.3426   -1.3857    0.0000 H   0  0  0  0  0  0  0  0  0  0  0  0
   -4.7426    1.3857    0.0000 H   0  0  0  0  0  0  0  0  0  0  0  0
    0.8000    1.3857    0.0000 H   0  0  0  0  0  0  0  0  0  0  0  0
   -0.7999   -1.3857    0.0000 H   0  0  0  0  0  0  0  0  0  0  0  0
    2.7713   -1.6000    0.0000 H   0  0  0  0  0  0  0  0  0  0  0  0
    1.3856   -2.4000    0.0000 H   0  0  0  0  0  0  0  0  0  0  0  0
    2.7713    0.0000    0.0000 H   0  0  0  0  0  0  0  0  0  0  0  0
  1  2  1  0  0  0  0
  2  3  1  0  0  0  0
  3  4  1  0  0  0  0
  4  5  2  0  0  0  0
  4  6  2  0  0  0  0
  4  7  1  0  0  0  0
  7  8  1  0  0  0  0
  8  9  1  0  0  0  0
  9 10  1  0  0  0  0
  9 11  1  0  0  0  0
  9 12  1  0  0  0  0
  8 13  1  0  0  0  0
  8 14  1  0  0  0  0
  2 15  1  0  0  0  0
  2 16  1  0  0  0  0
  1 17  1  0  0  0  0
  1 18  1  0  0  0  0
  1 19  1  0  0  0  0
M  END
> <CAS>
64-67-5

> <NAME>
DIETHYL SULFATE

> <preferred_name>
Diethyl sulfate

> <iupac>
diethyl sulfate

> <SMILES>
CCOS(=O)(=O)OCC

> <Canonical_QSARr>
CCOS(=O)(=O)OCC

> <InChI_Code_QSARr>
InChI=1S/C4H10O4S/c1-3-7-9(5,6)8-4-2/h3-4H2,1-2H3

> <InChI Key_QSARr>
DENRZWYUOJLTMF-UHFFFAOYSA-N

> <Salt_Solvent>
?

> <WS Temperature>
20

> <WS Reference>
MCCORMACK,WB & LAWES,BC (1983)

> <dsstox_substance_id>
DTXSID1024045

> <LogMolar>
-1.343

$$$$
65-45-2
  -INDIGO-01081615412D

 17 17  0  0  0  0  0  0  0  0999 V2000
    0.8000    1.3856    0.0000 C   0  0  0  0  0  0  0  0  0  0  0  0
    0.0000    0.0000    0.0000 C   0  0  0  0  0  0  0  0  0  0  0  0
   -1.6000    0.0000    0.0000 C   0  0  0  0  0  0  0  0  0  0  0  0
   -2.4001   -1.3856    0.0000 N   0  0  0  0  0  0  0  0  0  0  0  0
   -4.0000   -1.3856    0.0000 H   0  0  0  0  0  0  0  0  0  0  0  0
   -1.6000   -2.7713    0.0000 H   0  0  0  0  0  0  0  0  0  0  0  0
   -2.4001    1.3856    0.0000 O   0  0  0  0  0  0  0  0  0  0  0  0
    0.8000   -1.3856    0.0000 C   0  0  0  0  0  0  0  0  0  0  0  0
    0.0000   -2.7713    0.0000 H   0  0  0  0  0  0  0  0  0  0  0  0
    2.4000   -1.3856    0.0000 C   0  0  0  0  0  0  0  0  0  0  0  0
    3.2001   -2.7713    0.0000 H   0  0  0  0  0  0  0  0  0  0  0  0
    3.2001    0.0000    0.0000 C   0  0  0  0  0  0  0  0  0  0  0  0
    4.8000    0.0000    0.0000 H   0  0  0  0  0  0  0  0  0  0  0  0
    2.4000    1.3856    0.0000 C   0  0  0  0  0  0  0  0  0  0  0  0
    3.2001    2.7713    0.0000 H   0  0  0  0  0  0  0  0  0  0  0  0
    0.0000    2.7713    0.0000 O   0  0  0  0  0  0  0  0  0  0  0  0
    0.8000    4.1569    0.0000 H   0  0  0  0  0  0  0  0  0  0  0  0
  1  2  4  0  0  0  0
  2  3  1  0  0  0  0
  3  4  1  0  0  0  0
  4  5  1  0  0  0  0
  4  6  1  0  0  0  0
  3  7  2  0  0  0  0
  2  8  4  0  0  0  0
  8  9  1  0  0  0  0
  8 10  4  0  0  0  0
 10 11  1  0  0  0  0
 10 12  4  0  0  0  0
 12 13  1  0  0  0  0
 12 14  4  0  0  0  0
 14  1  4  0  0  0  0
 14 15  1  0  0  0  0
  1 16  1  0  0  0  0
 16 17  1  0  0  0  0
M  END
> <CAS>
65-45-2

> <NAME>
O-HYDROXYBENZAMIDE

> <preferred_name>
Salicylamide

> <iupac>
2-hydroxybenzamide

> <SMILES>
NC(=O)c1ccccc1O

> <Canonical_QSARr>
NC(=O)c1ccccc1O

> <InChI_Code_QSARr>
InChI=1S/C7H7NO2/c8-7(10)5-3-1-2-4-6(5)9/h1-4,9H,(H2,8,10)

> <InChI Key_QSARr>
SKZKKFZAGNVIMN-UHFFFAOYSA-N

> <Salt_Solvent>
?

> <WS Temperature>
25

> <WS Reference>
YALKOWSKY,SH & DANNENFELSER,RM (1992)

> <dsstox_substance_id>
DTXSID3021726

> <LogMolar>
-1.8233

$$$$
65-85-0
  -INDIGO-01081615412D

 15 15  0  0  0  0  0  0  0  0999 V2000
    2.4001   -1.3856    0.0000 O   0  0  0  0  0  0  0  0  0  0  0  0
    1.6000    0.0000    0.0000 C   0  0  0  0  0  0  0  0  0  0  0  0
   -0.0000   -0.0000    0.0000 C   0  0  0  0  0  0  0  0  0  0  0  0
   -0.8000    1.3856    0.0000 C   0  0  0  0  0  0  0  0  0  0  0  0
   -0.0000    2.7713    0.0000 H   0  0  0  0  0  0  0  0  0  0  0  0
   -2.4000    1.3856    0.0000 C   0  0  0  0  0  0  0  0  0  0  0  0
   -3.2001    2.7713    0.0000 H   0  0  0  0  0  0  0  0  0  0  0  0
   -3.2001   -0.0000    0.0000 C   0  0  0  0  0  0  0  0  0  0  0  0
   -4.8000   -0.0000    0.0000 H   0  0  0  0  0  0  0  0  0  0  0  0
   -2.4000   -1.3856    0.0000 C   0  0  0  0  0  0  0  0  0  0  0  0
   -3.2001   -2.7713    0.0000 H   0  0  0  0  0  0  0  0  0  0  0  0
   -0.8000   -1.3856    0.0000 C   0  0  0  0  0  0  0  0  0  0  0  0
   -0.0000   -2.7713    0.0000 H   0  0  0  0  0  0  0  0  0  0  0  0
    2.4001    1.3856    0.0000 O   0  0  0  0  0  0  0  0  0  0  0  0
    4.0000   -1.3856    0.0000 H   0  0  0  0  0  0  0  0  0  0  0  0
  1  2  1  0  0  0  0
  2  3  1  0  0  0  0
  3  4  4  0  0  0  0
  4  5  1  0  0  0  0
  4  6  4  0  0  0  0
  6  7  1  0  0  0  0
  6  8  4  0  0  0  0
  8  9  1  0  0  0  0
  8 10  4  0  0  0  0
 10 11  1  0  0  0  0
 10 12  4  0  0  0  0
 12  3  4  0  0  0  0
 12 13  1  0  0  0  0
  2 14  2  0  0  0  0
  1 15  1  0  0  0  0
M  END
> <CAS>
65-85-0

> <NAME>
BENZOIC ACID

> <preferred_name>
Benzoic acid

> <iupac>
benzoic acid

> <SMILES>
OC(=O)c1ccccc1

> <Canonical_QSARr>
OC(=O)c1ccccc1

> <InChI_Code_QSARr>
InChI=1S/C7H6O2/c8-7(9)6-4-2-1-3-5-6/h1-5H,(H,8,9)

> <InChI Key_QSARr>
WPYMKLBDIGXBTP-UHFFFAOYSA-N

> <Salt_Solvent>
?

> <WS Temperature>
25

> <WS Reference>
YALKOWSKY,SH & DANNENFELSER,RM (1992)

> <dsstox_substance_id>
DTXSID6020143

> <LogMolar>
-1.60515

$$$$
66-25-1
  -INDIGO-01081615412D

 19 18  0  0  0  0  0  0  0  0999 V2000
   -3.2000   -0.0000    0.0000 C   0  0  0  0  0  0  0  0  0  0  0  0
   -1.5999    0.0000    0.0000 C   0  0  0  0  0  0  0  0  0  0  0  0
    0.0000    0.0000    0.0000 C   0  0  0  0  0  0  0  0  0  0  0  0
    1.6000    0.0000    0.0000 C   0  0  0  0  0  0  0  0  0  0  0  0
    3.2001    0.0000    0.0000 C   0  0  0  0  0  0  0  0  0  0  0  0
    4.8000    0.0000    0.0000 C   0  0  0  0  0  0  0  0  0  0  0  0
    5.6000   -1.3856    0.0000 O   0  0  0  0  0  0  0  0  0  0  0  0
    5.6000    1.3856    0.0000 H   0  0  0  0  0  0  0  0  0  0  0  0
    3.2001   -1.6000    0.0000 H   0  0  0  0  0  0  0  0  0  0  0  0
    3.2001    1.6000    0.0000 H   0  0  0  0  0  0  0  0  0  0  0  0
    1.6000   -1.6000    0.0000 H   0  0  0  0  0  0  0  0  0  0  0  0
    1.6000    1.6000    0.0000 H   0  0  0  0  0  0  0  0  0  0  0  0
    0.0000    1.6000    0.0000 H   0  0  0  0  0  0  0  0  0  0  0  0
    0.0000   -1.6000    0.0000 H   0  0  0  0  0  0  0  0  0  0  0  0
   -1.5999   -1.6000    0.0000 H   0  0  0  0  0  0  0  0  0  0  0  0
   -1.5999    1.6000    0.0000 H   0  0  0  0  0  0  0  0  0  0  0  0
   -4.8000   -0.0000    0.0000 H   0  0  0  0  0  0  0  0  0  0  0  0
   -4.0000   -1.3856    0.0000 H   0  0  0  0  0  0  0  0  0  0  0  0
   -4.0000    1.3856    0.0000 H   0  0  0  0  0  0  0  0  0  0  0  0
  1  2  1  0  0  0  0
  2  3  1  0  0  0  0
  3  4  1  0  0  0  0
  4  5  1  0  0  0  0
  5  6  1  0  0  0  0
  6  7  2  0  0  0  0
  6  8  1  0  0  0  0
  5  9  1  0  0  0  0
  5 10  1  0  0  0  0
  4 11  1  0  0  0  0
  4 12  1  0  0  0  0
  3 13  1  0  0  0  0
  3 14  1  0  0  0  0
  2 15  1  0  0  0  0
  2 16  1  0  0  0  0
  1 17  1  0  0  0  0
  1 18  1  0  0  0  0
  1 19  1  0  0  0  0
M  END
> <CAS>
66-25-1

> <NAME>
HEXANAL

> <preferred_name>
Hexanal

> <iupac>
hexanal

> <SMILES>
CCCCCC=O

> <Canonical_QSARr>
CCCCCC=O

> <InChI_Code_QSARr>
InChI=1S/C6H12O/c1-2-3-4-5-6-7/h6H,2-5H2,1H3

> <InChI Key_QSARr>
JARKCYVAAOWBJS-UHFFFAOYSA-N

> <Salt_Solvent>
?

> <WS Temperature>
30

> <WS Reference>
DAVIS,PL (1968)

> <dsstox_substance_id>
DTXSID2021604

> <LogMolar>
-1.2494

$$$$
67-63-0
  -INDIGO-01081615412D

 12 11  0  0  0  0  0  0  0  0999 V2000
    0.0000    1.6000    0.0000 O   0  0  0  0  0  0  0  0  0  0  0  0
    0.0000    0.0000    0.0000 C   0  0  0  0  0  0  0  0  0  0  0  0
   -1.6000    0.0000    0.0000 C   0  0  0  0  0  0  0  0  0  0  0  0
   -3.2000    0.0000    0.0000 H   0  0  0  0  0  0  0  0  0  0  0  0
   -2.4000   -1.3856    0.0000 H   0  0  0  0  0  0  0  0  0  0  0  0
   -2.4000    1.3856    0.0000 H   0  0  0  0  0  0  0  0  0  0  0  0
    1.6000    0.0000    0.0000 C   0  0  0  0  0  0  0  0  0  0  0  0
    3.2000    0.0000    0.0000 H   0  0  0  0  0  0  0  0  0  0  0  0
    2.4000   -1.3856    0.0000 H   0  0  0  0  0  0  0  0  0  0  0  0
    2.4000    1.3856    0.0000 H   0  0  0  0  0  0  0  0  0  0  0  0
    0.0000   -1.6000    0.0000 H   0  0  0  0  0  0  0  0  0  0  0  0
    1.3856    2.4000    0.0000 H   0  0  0  0  0  0  0  0  0  0  0  0
  1  2  1  0  0  0  0
  2  3  1  0  0  0  0
  3  4  1  0  0  0  0
  3  5  1  0  0  0  0
  3  6  1  0  0  0  0
  2  7  1  0  0  0  0
  7  8  1  0  0  0  0
  7  9  1  0  0  0  0
  7 10  1  0  0  0  0
  2 11  1  0  0  0  0
  1 12  1  0  0  0  0
M  END
> <CAS>
67-63-0

> <NAME>
ISOPROPANOL

> <preferred_name>
Isopropanol

> <iupac>
propan-2-ol

> <SMILES>
CC(C)O

> <Canonical_QSARr>
CC(C)O

> <InChI_Code_QSARr>
InChI=1S/C3H8O/c1-3(2)4/h3-4H,1-2H3

> <InChI Key_QSARr>
KFZMGEQAYNKOFK-UHFFFAOYSA-N

> <Salt_Solvent>
?

> <WS Temperature>
25

> <WS Reference>
RIDDICK,JA ET AL. (1986)

> <dsstox_substance_id>
DTXSID7020762

> <LogMolar>
1.2211

$$$$
68-12-2
  -INDIGO-01081615412D

 12 11  0  0  0  0  0  0  0  0999 V2000
    1.3856    0.8000    0.0000 C   0  0  0  0  0  0  0  0  0  0  0  0
   -0.0000    0.0000    0.0000 N   0  0  0  0  0  0  0  0  0  0  0  0
   -1.3856    0.8000    0.0000 C   0  0  0  0  0  0  0  0  0  0  0  0
   -2.7713    1.6000    0.0000 H   0  0  0  0  0  0  0  0  0  0  0  0
   -2.7713    0.0000    0.0000 H   0  0  0  0  0  0  0  0  0  0  0  0
   -1.3856    2.4000    0.0000 H   0  0  0  0  0  0  0  0  0  0  0  0
    0.0000   -1.6000    0.0000 C   0  0  0  0  0  0  0  0  0  0  0  0
    1.3856   -2.4000    0.0000 O   0  0  0  0  0  0  0  0  0  0  0  0
   -1.3856   -2.4000    0.0000 H   0  0  0  0  0  0  0  0  0  0  0  0
    2.7713    1.6000    0.0000 H   0  0  0  0  0  0  0  0  0  0  0  0
    2.7713    0.0000    0.0000 H   0  0  0  0  0  0  0  0  0  0  0  0
    1.3856    2.4000    0.0000 H   0  0  0  0  0  0  0  0  0  0  0  0
  1  2  1  0  0  0  0
  2  3  1  0  0  0  0
  3  4  1  0  0  0  0
  3  5  1  0  0  0  0
  3  6  1  0  0  0  0
  2  7  1  0  0  0  0
  7  8  2  0  0  0  0
  7  9  1  0  0  0  0
  1 10  1  0  0  0  0
  1 11  1  0  0  0  0
  1 12  1  0  0  0  0
M  END
> <CAS>
68-12-2

> <NAME>
N,N'-DIMETHYLFORMAMIDE

> <preferred_name>
N,N-Dimethylformamide

> <iupac>
N,N-dimethylformamide

> <SMILES>
CN(C)C=O

> <Canonical_QSARr>
CN(C)C=O

> <InChI_Code_QSARr>
InChI=1S/C3H7NO/c1-4(2)3-5/h3H,1-2H3

> <InChI Key_QSARr>
ZMXDDKWLCZADIW-UHFFFAOYSA-N

> <Salt_Solvent>
?

> <WS Temperature>
25

> <WS Reference>
ISHOW (NA--) @2ND

> <dsstox_substance_id>
DTXSID6020515

> <LogMolar>
1.1361

$$$$
68-96-2
  -INDIGO-01081615412D

 54 57  0  0  0  0  0  0  0  0999 V2000
   -0.0001   -0.0000    0.0000 C   0  0  0  0  0  0  0  0  0  0  0  0
    0.9404    1.2945    0.0000 C   0  0  0  0  0  0  0  0  0  0  0  0
    2.0914    2.4059    0.0000 H   0  0  0  0  0  0  0  0  0  0  0  0
    1.1077    2.8856    0.0000 H   0  0  0  0  0  0  0  0  0  0  0  0
    2.4785    0.8534    0.0000 H   0  0  0  0  0  0  0  0  0  0  0  0
   -0.8001    1.3856    0.0000 C   0  0  0  0  0  0  0  0  0  0  0  0
    0.2285    2.6113    0.0000 H   0  0  0  0  0  0  0  0  0  0  0  0
   -1.0777    2.9613    0.0000 H   0  0  0  0  0  0  0  0  0  0  0  0
   -2.3999    1.3856    0.0000 C   0  0  0  0  0  0  0  0  0  0  0  0
   -2.1221    2.9613    0.0000 H   0  0  0  0  0  0  0  0  0  0  0  0
   -3.4285    2.6113    0.0000 H   0  0  0  0  0  0  0  0  0  0  0  0
   -3.2000   -0.0000    0.0000 C   0  0  0  0  0  0  0  0  0  0  0  0
   -3.1762    0.9758    0.0000 H   0  0  0  0  0  0  0  0  0  0  0  0
   -2.3999   -1.3856    0.0000 C   0  0  0  0  0  0  0  0  0  0  0  0
   -3.2000   -2.7712    0.0000 C   0  0  0  0  0  0  0  0  0  0  0  0
   -4.8000   -2.7712    0.0000 C   0  0  0  0  0  0  0  0  0  0  0  0
   -5.6001   -1.3856    0.0000 C   0  0  0  0  0  0  0  0  0  0  0  0
   -7.1999   -1.3856    0.0000 C   0  0  0  0  0  0  0  0  0  0  0  0
   -7.9999   -2.7712    0.0000 H   0  0  0  0  0  0  0  0  0  0  0  0
   -7.9999   -0.0000    0.0000 C   0  0  0  0  0  0  0  0  0  0  0  0
   -9.6000   -0.0000    0.0000 O   0  0  0  0  0  0  0  0  0  0  0  0
   -7.1999    1.3856    0.0000 C   0  0  0  0  0  0  0  0  0  0  0  0
   -6.9223    2.9613    0.0000 H   0  0  0  0  0  0  0  0  0  0  0  0
   -8.7034    1.9329    0.0000 H   0  0  0  0  0  0  0  0  0  0  0  0
   -5.6001    1.3856    0.0000 C   0  0  0  0  0  0  0  0  0  0  0  0
   -5.0528    2.8892    0.0000 H   0  0  0  0  0  0  0  0  0  0  0  0
   -5.8779    2.9613    0.0000 H   0  0  0  0  0  0  0  0  0  0  0  0
   -4.8000   -0.0000    0.0000 C   0  0  0  0  0  0  0  0  0  0  0  0
   -4.3885    0.4902    0.0000 C   0  0  0  0  0  0  0  0  0  0  0  0
   -4.9358    1.9938    0.0000 H   0  0  0  0  0  0  0  0  0  0  0  0
   -4.0000    1.3856    0.0000 H   0  0  0  0  0  0  0  0  0  0  0  0
   -3.8414   -1.0133    0.0000 H   0  0  0  0  0  0  0  0  0  0  0  0
   -6.3036   -3.3186    0.0000 H   0  0  0  0  0  0  0  0  0  0  0  0
   -4.5222   -4.3470    0.0000 H   0  0  0  0  0  0  0  0  0  0  0  0
   -3.4778   -4.3470    0.0000 H   0  0  0  0  0  0  0  0  0  0  0  0
   -1.9743   -3.7998    0.0000 H   0  0  0  0  0  0  0  0  0  0  0  0
   -1.5999   -2.7712    0.0000 H   0  0  0  0  0  0  0  0  0  0  0  0
   -0.8001   -1.3856    0.0000 C   0  0  0  0  0  0  0  0  0  0  0  0
   -0.6329   -2.9769    0.0000 H   0  0  0  0  0  0  0  0  0  0  0  0
    0.2705   -2.5746    0.0000 C   0  0  0  0  0  0  0  0  0  0  0  0
   -0.3801   -4.0364    0.0000 H   0  0  0  0  0  0  0  0  0  0  0  0
    1.0706   -3.9603    0.0000 H   0  0  0  0  0  0  0  0  0  0  0  0
    1.7323   -1.9239    0.0000 C   0  0  0  0  0  0  0  0  0  0  0  0
    2.2267   -3.4456    0.0000 H   0  0  0  0  0  0  0  0  0  0  0  0
    3.2973   -1.5913    0.0000 H   0  0  0  0  0  0  0  0  0  0  0  0
    1.5650   -0.3327    0.0000 C   0  0  0  0  0  0  0  0  0  0  0  0
    1.7323    1.2586    0.0000 O   0  0  0  0  0  0  0  0  0  0  0  0
    3.1940    1.9094    0.0000 H   0  0  0  0  0  0  0  0  0  0  0  0
    3.1651   -0.3327    0.0000 C   0  0  0  0  0  0  0  0  0  0  0  0
    4.1934   -1.5584    0.0000 C   0  0  0  0  0  0  0  0  0  0  0  0
    5.7935   -1.5584    0.0000 H   0  0  0  0  0  0  0  0  0  0  0  0
    4.9935   -2.9440    0.0000 H   0  0  0  0  0  0  0  0  0  0  0  0
    4.9935   -0.1726    0.0000 H   0  0  0  0  0  0  0  0  0  0  0  0
    3.9651    1.0529    0.0000 O   0  0  0  0  0  0  0  0  0  0  0  0
  1  2  1  0  0  0  0
  2  3  1  0  0  0  0
  2  4  1  0  0  0  0
  2  5  1  0  0  0  0
  1  6  1  0  0  0  0
  6  7  1  0  0  0  0
  6  8  1  0  0  0  0
  6  9  1  0  0  0  0
  9 10  1  0  0  0  0
  9 11  1  0  0  0  0
  9 12  1  0  0  0  0
 12 13  1  0  0  0  0
 12 14  1  0  0  0  0
 14 15  1  0  0  0  0
 15 16  1  0  0  0  0
 16 17  1  0  0  0  0
 17 18  2  0  0  0  0
 18 19  1  0  0  0  0
 18 20  1  0  0  0  0
 20 21  2  0  0  0  0
 20 22  1  0  0  0  0
 22 23  1  0  0  0  0
 22 24  1  0  0  0  0
 22 25  1  0  0  0  0
 25 26  1  0  0  0  0
 25 27  1  0  0  0  0
 25 28  1  0  0  0  0
 28 17  1  0  0  0  0
 28 12  1  0  0  0  0
 28 29  1  0  0  0  0
 29 30  1  0  0  0  0
 29 31  1  0  0  0  0
 29 32  1  0  0  0  0
 16 33  1  0  0  0  0
 16 34  1  0  0  0  0
 15 35  1  0  0  0  0
 15 36  1  0  0  0  0
 14 37  1  0  0  0  0
 14 38  1  0  0  0  0
 38  1  1  0  0  0  0
 38 39  1  0  0  0  0
 38 40  1  0  0  0  0
 40 41  1  0  0  0  0
 40 42  1  0  0  0  0
 40 43  1  0  0  0  0
 43 44  1  0  0  0  0
 43 45  1  0  0  0  0
 43 46  1  0  0  0  0
 46  1  1  0  0  0  0
 46 47  1  0  0  0  0
 47 48  1  0  0  0  0
 46 49  1  0  0  0  0
 49 50  1  0  0  0  0
 50 51  1  0  0  0  0
 50 52  1  0  0  0  0
 50 53  1  0  0  0  0
 49 54  2  0  0  0  0
M  END
> <CAS>
68-96-2

> <NAME>
17-ALPHA-HYDROXYPROGESTERONE

> <preferred_name>
17alpha-Hydroxyprogesterone

> <iupac>
17-hydroxypregn-4-ene-3,20-dione

> <SMILES>
CC(=O)[C@@]1(O)CC[C@H]2[C@@H]3CCC4=CC(=O)CC[C@]4(C)[C@H]3CC[C@]12C

> <Canonical_QSARr>
CC(=O)C1(O)CCC2C3CCC4=CC(=O)CCC4(C)C3CCC12C

> <InChI_Code_QSARr>
InChI=1S/C21H30O3/c1-13(22)21(24)11-8-18-16-5-4-14-12-15(23)6-9-19(14,2)17(16)7-10-20(18,21)3/h12,16-18,24H,4-11H2,1-3H3

> <InChI Key_QSARr>
DBPWSSGDRRHUNT-UHFFFAOYSA-N

> <Salt_Solvent>
?

> <WS Temperature>
27

> <WS Reference>
YALKOWSKY,SH & DANNENFELSER,RM (1992)

> <dsstox_substance_id>
DTXSID6040747

> <LogMolar>
-4.7076

$$$$
70-47-3, 7006-34-0
  -INDIGO-01081615412D

 17 16  0  0  0  0  0  0  0  0999 V2000
    1.5756   -0.2778    0.0000 C   0  0  0  0  0  0  0  0  0  0  0  0
   -0.0000    0.0000    0.0000 C   0  0  0  0  0  0  0  0  0  0  0  0
   -0.0000    1.6000    0.0000 N   0  0  0  0  0  0  0  0  0  0  0  0
   -1.3856    2.4000    0.0000 H   0  0  0  0  0  0  0  0  0  0  0  0
    1.2257    2.6285    0.0000 H   0  0  0  0  0  0  0  0  0  0  0  0
   -1.6000    0.0000    0.0000 C   0  0  0  0  0  0  0  0  0  0  0  0
   -2.4000   -1.3857    0.0000 O   0  0  0  0  0  0  0  0  0  0  0  0
   -4.0000   -1.3857    0.0000 H   0  0  0  0  0  0  0  0  0  0  0  0
   -2.4000    1.3856    0.0000 O   0  0  0  0  0  0  0  0  0  0  0  0
   -0.0000   -1.6000    0.0000 H   0  0  0  0  0  0  0  0  0  0  0  0
    3.1514   -0.5557    0.0000 C   0  0  0  0  0  0  0  0  0  0  0  0
    3.6987   -2.0592    0.0000 N   0  0  0  0  0  0  0  0  0  0  0  0
    5.2743   -2.3371    0.0000 H   0  0  0  0  0  0  0  0  0  0  0  0
    2.6701   -3.2849    0.0000 H   0  0  0  0  0  0  0  0  0  0  0  0
    4.1798    0.6700    0.0000 O   0  0  0  0  0  0  0  0  0  0  0  0
    1.2978   -1.8535    0.0000 H   0  0  0  0  0  0  0  0  0  0  0  0
    1.8536    1.2978    0.0000 H   0  0  0  0  0  0  0  0  0  0  0  0
  1  2  1  0  0  0  0
  2  3  1  0  0  0  0
  3  4  1  0  0  0  0
  3  5  1  0  0  0  0
  2  6  1  0  0  0  0
  6  7  1  0  0  0  0
  7  8  1  0  0  0  0
  6  9  2  0  0  0  0
  2 10  1  0  0  0  0
  1 11  1  0  0  0  0
 11 12  1  0  0  0  0
 12 13  1  0  0  0  0
 12 14  1  0  0  0  0
 11 15  2  0  0  0  0
  1 16  1  0  0  0  0
  1 17  1  0  0  0  0
M  END
> <CAS>
70-47-3, 7006-34-0

> <NAME>
ASPARAGINE, Asparagine

> <preferred_name>


> <iupac>


> <SMILES>
NC(=O)CC(N)C(O)=O

> <Canonical_QSARr>
NC(=O)CC(N)C(O)=O

> <InChI_Code_QSARr>
InChI=1S/C4H8N2O3/c5-2(4(8)9)1-3(6)7/h2H,1,5H2,(H2,6,7)(H,8,9)

> <InChI Key_QSARr>
DCXYFEDJOCDNAF-UHFFFAOYSA-N

> <Salt_Solvent>
?

> <WS Temperature>
23

> <WS Reference>
YALKOWSKY,SH & DANNENFELSER,RM (1992)

> <dsstox_substance_id>


> <LogMolar>
-0.764

$$$$
71-36-3
  -INDIGO-01081615412D

 15 14  0  0  0  0  0  0  0  0999 V2000
    3.2001    0.0000    0.0000 C   0  0  0  0  0  0  0  0  0  0  0  0
    1.6000    0.0000    0.0000 C   0  0  0  0  0  0  0  0  0  0  0  0
    0.0000    0.0000    0.0000 C   0  0  0  0  0  0  0  0  0  0  0  0
   -1.6000    0.0000    0.0000 C   0  0  0  0  0  0  0  0  0  0  0  0
   -3.2000   -0.0000    0.0000 O   0  0  0  0  0  0  0  0  0  0  0  0
   -4.0000   -1.3856    0.0000 H   0  0  0  0  0  0  0  0  0  0  0  0
   -1.6000   -1.6000    0.0000 H   0  0  0  0  0  0  0  0  0  0  0  0
   -1.6000    1.6000    0.0000 H   0  0  0  0  0  0  0  0  0  0  0  0
    0.0000    1.6000    0.0000 H   0  0  0  0  0  0  0  0  0  0  0  0
    0.0000   -1.6000    0.0000 H   0  0  0  0  0  0  0  0  0  0  0  0
    1.6000   -1.6000    0.0000 H   0  0  0  0  0  0  0  0  0  0  0  0
    1.6000    1.6000    0.0000 H   0  0  0  0  0  0  0  0  0  0  0  0
    4.8000    0.0000    0.0000 H   0  0  0  0  0  0  0  0  0  0  0  0
    4.0000   -1.3856    0.0000 H   0  0  0  0  0  0  0  0  0  0  0  0
    4.0000    1.3856    0.0000 H   0  0  0  0  0  0  0  0  0  0  0  0
  1  2  1  0  0  0  0
  2  3  1  0  0  0  0
  3  4  1  0  0  0  0
  4  5  1  0  0  0  0
  5  6  1  0  0  0  0
  4  7  1  0  0  0  0
  4  8  1  0  0  0  0
  3  9  1  0  0  0  0
  3 10  1  0  0  0  0
  2 11  1  0  0  0  0
  2 12  1  0  0  0  0
  1 13  1  0  0  0  0
  1 14  1  0  0  0  0
  1 15  1  0  0  0  0
M  END
> <CAS>
71-36-3

> <NAME>
1-BUTANOL

> <preferred_name>
1-Butanol

> <iupac>
butan-1-ol

> <SMILES>
CCCCO

> <Canonical_QSARr>
CCCCO

> <InChI_Code_QSARr>
InChI=1S/C4H10O/c1-2-3-4-5/h5H,2-4H2,1H3

> <InChI Key_QSARr>
LRHPLDYGYMQRHN-UHFFFAOYSA-N

> <Salt_Solvent>
?

> <WS Temperature>
25

> <WS Reference>
TEWARI,YB ET AL. (1982)

> <dsstox_substance_id>
DTXSID1021740

> <LogMolar>
-0.0692

$$$$
71-63-6
  -INDIGO-01081615412D

118125  0  0  0  0  0  0  0  0999 V2000
    9.2255   -1.0284    0.0000 O   0  0  0  0  0  0  0  0  0  0  0  0
    8.0002    0.0001    0.0000 C   0  0  0  0  0  0  0  0  0  0  0  0
    7.2003    1.3857    0.0000 C   0  0  0  0  0  0  0  0  0  0  0  0
    8.7033    1.9329    0.0000 H   0  0  0  0  0  0  0  0  0  0  0  0
    7.4780    2.9614    0.0000 H   0  0  0  0  0  0  0  0  0  0  0  0
    5.5998    1.3857    0.0000 C   0  0  0  0  0  0  0  0  0  0  0  0
    6.3998    2.7712    0.0000 H   0  0  0  0  0  0  0  0  0  0  0  0
    4.7999    0.0001    0.0000 C   0  0  0  0  0  0  0  0  0  0  0  0
    4.3888   -0.4902    0.0000 C   0  0  0  0  0  0  0  0  0  0  0  0
    4.9358   -1.9938    0.0000 H   0  0  0  0  0  0  0  0  0  0  0  0
    3.9999   -1.3857    0.0000 H   0  0  0  0  0  0  0  0  0  0  0  0
    3.8412    1.0133    0.0000 H   0  0  0  0  0  0  0  0  0  0  0  0
    3.2000    0.0001    0.0000 C   0  0  0  0  0  0  0  0  0  0  0  0
    2.4000    1.3857    0.0000 C   0  0  0  0  0  0  0  0  0  0  0  0
    3.2000    2.7712    0.0000 C   0  0  0  0  0  0  0  0  0  0  0  0
    4.7999    2.7712    0.0000 C   0  0  0  0  0  0  0  0  0  0  0  0
    6.0257    3.7997    0.0000 H   0  0  0  0  0  0  0  0  0  0  0  0
    4.5221    4.3470    0.0000 H   0  0  0  0  0  0  0  0  0  0  0  0
    3.4777    4.3470    0.0000 H   0  0  0  0  0  0  0  0  0  0  0  0
    1.9741    3.7997    0.0000 H   0  0  0  0  0  0  0  0  0  0  0  0
    1.6001    2.7712    0.0000 H   0  0  0  0  0  0  0  0  0  0  0  0
    0.8001    1.3857    0.0000 C   0  0  0  0  0  0  0  0  0  0  0  0
    1.0604    1.9704    0.0000 O   0  0  0  0  0  0  0  0  0  0  0  0
    0.9620    2.7570    0.0000 H   0  0  0  0  0  0  0  0  0  0  0  0
    0.0002    0.0001    0.0000 C   0  0  0  0  0  0  0  0  0  0  0  0
   -0.9405   -1.2944    0.0000 C   0  0  0  0  0  0  0  0  0  0  0  0
   -2.0912   -2.4058    0.0000 H   0  0  0  0  0  0  0  0  0  0  0  0
   -1.7325   -1.2586    0.0000 H   0  0  0  0  0  0  0  0  0  0  0  0
   -1.1077   -2.8856    0.0000 H   0  0  0  0  0  0  0  0  0  0  0  0
   -1.5648    0.3326    0.0000 C   0  0  0  0  0  0  0  0  0  0  0  0
   -3.1652    0.3326    0.0000 C   0  0  0  0  0  0  0  0  0  0  0  0
   -4.1054    1.6271    0.0000 C   0  0  0  0  0  0  0  0  0  0  0  0
   -2.7198    2.4271    0.0000 H   0  0  0  0  0  0  0  0  0  0  0  0
   -4.7561    3.0887    0.0000 H   0  0  0  0  0  0  0  0  0  0  0  0
   -5.6270    1.1327    0.0000 O   0  0  0  0  0  0  0  0  0  0  0  0
   -5.6270   -0.4673    0.0000 C   0  0  0  0  0  0  0  0  0  0  0  0
   -6.9216   -1.4079    0.0000 O   0  0  0  0  0  0  0  0  0  0  0  0
   -4.1054   -0.9619    0.0000 C   0  0  0  0  0  0  0  0  0  0  0  0
   -3.6112   -2.4835    0.0000 H   0  0  0  0  0  0  0  0  0  0  0  0
   -1.7325    1.9240    0.0000 C   0  0  0  0  0  0  0  0  0  0  0  0
   -0.2707    2.5746    0.0000 C   0  0  0  0  0  0  0  0  0  0  0  0
    0.1197    3.2648    0.0000 H   0  0  0  0  0  0  0  0  0  0  0  0
   -1.0707    3.9604    0.0000 H   0  0  0  0  0  0  0  0  0  0  0  0
   -2.2267    3.4456    0.0000 H   0  0  0  0  0  0  0  0  0  0  0  0
   -3.2975    1.5913    0.0000 H   0  0  0  0  0  0  0  0  0  0  0  0
   -2.0489   -0.2954    0.0000 H   0  0  0  0  0  0  0  0  0  0  0  0
    0.8001   -1.3857    0.0000 C   0  0  0  0  0  0  0  0  0  0  0  0
   -0.4257   -2.4141    0.0000 H   0  0  0  0  0  0  0  0  0  0  0  0
    1.0779   -2.9614    0.0000 H   0  0  0  0  0  0  0  0  0  0  0  0
    2.4000   -1.3857    0.0000 C   0  0  0  0  0  0  0  0  0  0  0  0
    2.1223   -2.9614    0.0000 H   0  0  0  0  0  0  0  0  0  0  0  0
    3.4285   -2.6112    0.0000 H   0  0  0  0  0  0  0  0  0  0  0  0
    3.1762   -0.9757    0.0000 H   0  0  0  0  0  0  0  0  0  0  0  0
    5.5998   -1.3857    0.0000 C   0  0  0  0  0  0  0  0  0  0  0  0
    5.0528   -2.8892    0.0000 H   0  0  0  0  0  0  0  0  0  0  0  0
    5.8776   -2.9614    0.0000 H   0  0  0  0  0  0  0  0  0  0  0  0
    7.2003   -1.3857    0.0000 C   0  0  0  0  0  0  0  0  0  0  0  0
    6.9220   -2.9614    0.0000 H   0  0  0  0  0  0  0  0  0  0  0  0
    8.7033   -1.9330    0.0000 H   0  0  0  0  0  0  0  0  0  0  0  0
    9.2255    1.0285    0.0000 H   0  0  0  0  0  0  0  0  0  0  0  0
   10.8016   -0.7506    0.0000 C   0  0  0  0  0  0  0  0  0  0  0  0
   10.8016   -2.3507    0.0000 O   0  0  0  0  0  0  0  0  0  0  0  0
   12.1872   -3.1506    0.0000 C   0  0  0  0  0  0  0  0  0  0  0  0
   11.1587   -4.3763    0.0000 C   0  0  0  0  0  0  0  0  0  0  0  0
   10.1302   -5.6020    0.0000 H   0  0  0  0  0  0  0  0  0  0  0  0
   11.7058   -5.8798    0.0000 H   0  0  0  0  0  0  0  0  0  0  0  0
    9.5826   -4.0985    0.0000 H   0  0  0  0  0  0  0  0  0  0  0  0
   13.2152   -4.3763    0.0000 H   0  0  0  0  0  0  0  0  0  0  0  0
   13.5729   -2.3507    0.0000 C   0  0  0  0  0  0  0  0  0  0  0  0
   15.1484   -2.0727    0.0000 O   0  0  0  0  0  0  0  0  0  0  0  0
   16.3743   -3.1013    0.0000 C   0  0  0  0  0  0  0  0  0  0  0  0
   17.1742   -4.4869    0.0000 C   0  0  0  0  0  0  0  0  0  0  0  0
   15.6706   -5.0342    0.0000 H   0  0  0  0  0  0  0  0  0  0  0  0
   17.4520   -6.0626    0.0000 H   0  0  0  0  0  0  0  0  0  0  0  0
   18.7741   -4.4869    0.0000 C   0  0  0  0  0  0  0  0  0  0  0  0
   18.4964   -6.0626    0.0000 O   0  0  0  0  0  0  0  0  0  0  0  0
   19.7217   -7.0911    0.0000 H   0  0  0  0  0  0  0  0  0  0  0  0
   20.2777   -5.0342    0.0000 H   0  0  0  0  0  0  0  0  0  0  0  0
   19.5741   -3.1013    0.0000 C   0  0  0  0  0  0  0  0  0  0  0  0
   20.7999   -4.1298    0.0000 O   0  0  0  0  0  0  0  0  0  0  0  0
   22.3755   -3.8518    0.0000 C   0  0  0  0  0  0  0  0  0  0  0  0
   22.3755   -5.4519    0.0000 O   0  0  0  0  0  0  0  0  0  0  0  0
   23.7611   -6.2518    0.0000 C   0  0  0  0  0  0  0  0  0  0  0  0
   22.7326   -7.4775    0.0000 C   0  0  0  0  0  0  0  0  0  0  0  0
   21.7041   -8.7032    0.0000 H   0  0  0  0  0  0  0  0  0  0  0  0
   23.2797   -8.9810    0.0000 H   0  0  0  0  0  0  0  0  0  0  0  0
   21.1570   -7.1997    0.0000 H   0  0  0  0  0  0  0  0  0  0  0  0
   24.7896   -7.4775    0.0000 H   0  0  0  0  0  0  0  0  0  0  0  0
   25.1467   -5.4519    0.0000 C   0  0  0  0  0  0  0  0  0  0  0  0
   26.7223   -5.1741    0.0000 O   0  0  0  0  0  0  0  0  0  0  0  0
   27.7508   -6.3996    0.0000 H   0  0  0  0  0  0  0  0  0  0  0  0
   25.6938   -6.9555    0.0000 H   0  0  0  0  0  0  0  0  0  0  0  0
   25.1467   -3.8518    0.0000 C   0  0  0  0  0  0  0  0  0  0  0  0
   25.6938   -2.3483    0.0000 O   0  0  0  0  0  0  0  0  0  0  0  0
   27.2694   -2.0704    0.0000 H   0  0  0  0  0  0  0  0  0  0  0  0
   26.7223   -4.1298    0.0000 H   0  0  0  0  0  0  0  0  0  0  0  0
   23.7611   -3.0519    0.0000 C   0  0  0  0  0  0  0  0  0  0  0  0
   24.7896   -1.8262    0.0000 H   0  0  0  0  0  0  0  0  0  0  0  0
   22.7326   -1.8262    0.0000 H   0  0  0  0  0  0  0  0  0  0  0  0
   21.8279   -2.3485    0.0000 H   0  0  0  0  0  0  0  0  0  0  0  0
   20.7999   -2.0727    0.0000 H   0  0  0  0  0  0  0  0  0  0  0  0
   18.7741   -1.7156    0.0000 C   0  0  0  0  0  0  0  0  0  0  0  0
   18.4964   -0.1398    0.0000 C   0  0  0  0  0  0  0  0  0  0  0  0
   18.2181    1.4357    0.0000 H   0  0  0  0  0  0  0  0  0  0  0  0
   19.7217    0.8886    0.0000 H   0  0  0  0  0  0  0  0  0  0  0  0
   16.9928    0.4072    0.0000 H   0  0  0  0  0  0  0  0  0  0  0  0
   20.2777   -1.1683    0.0000 H   0  0  0  0  0  0  0  0  0  0  0  0
   17.1742   -1.7156    0.0000 O   0  0  0  0  0  0  0  0  0  0  0  0
   15.1484   -4.1298    0.0000 H   0  0  0  0  0  0  0  0  0  0  0  0
   14.1199   -3.8542    0.0000 H   0  0  0  0  0  0  0  0  0  0  0  0
   13.5729   -0.7506    0.0000 C   0  0  0  0  0  0  0  0  0  0  0  0
   14.1199    0.7530    0.0000 O   0  0  0  0  0  0  0  0  0  0  0  0
   15.6955    1.0308    0.0000 H   0  0  0  0  0  0  0  0  0  0  0  0
   15.1484   -1.0284    0.0000 H   0  0  0  0  0  0  0  0  0  0  0  0
   12.1872    0.0493    0.0000 C   0  0  0  0  0  0  0  0  0  0  0  0
   13.2152    1.2750    0.0000 H   0  0  0  0  0  0  0  0  0  0  0  0
   11.1587    1.2750    0.0000 H   0  0  0  0  0  0  0  0  0  0  0  0
   10.2540    0.7530    0.0000 H   0  0  0  0  0  0  0  0  0  0  0  0
  1  2  1  0  0  0  0
  2  3  1  0  0  0  0
  3  4  1  0  0  0  0
  3  5  1  0  0  0  0
  3  6  1  0  0  0  0
  6  7  1  0  0  0  0
  6  8  1  0  0  0  0
  8  9  1  0  0  0  0
  9 10  1  0  0  0  0
  9 11  1  0  0  0  0
  9 12  1  0  0  0  0
  8 13  1  0  0  0  0
 13 14  1  0  0  0  0
 14 15  1  0  0  0  0
 15 16  1  0  0  0  0
 16  6  1  0  0  0  0
 16 17  1  0  0  0  0
 16 18  1  0  0  0  0
 15 19  1  0  0  0  0
 15 20  1  0  0  0  0
 14 21  1  0  0  0  0
 14 22  1  0  0  0  0
 22 23  1  0  0  0  0
 23 24  1  0  0  0  0
 22 25  1  0  0  0  0
 25 26  1  0  0  0  0
 26 27  1  0  0  0  0
 26 28  1  0  0  0  0
 26 29  1  0  0  0  0
 25 30  1  0  0  0  0
 30 31  1  0  0  0  0
 31 32  1  0  0  0  0
 32 33  1  0  0  0  0
 32 34  1  0  0  0  0
 32 35  1  0  0  0  0
 35 36  1  0  0  0  0
 36 37  2  0  0  0  0
 36 38  1  0  0  0  0
 38 31  2  0  0  0  0
 38 39  1  0  0  0  0
 30 40  1  0  0  0  0
 40 41  1  0  0  0  0
 41 22  1  0  0  0  0
 41 42  1  0  0  0  0
 41 43  1  0  0  0  0
 40 44  1  0  0  0  0
 40 45  1  0  0  0  0
 30 46  1  0  0  0  0
 25 47  1  0  0  0  0
 47 48  1  0  0  0  0
 47 49  1  0  0  0  0
 47 50  1  0  0  0  0
 50 13  1  0  0  0  0
 50 51  1  0  0  0  0
 50 52  1  0  0  0  0
 13 53  1  0  0  0  0
  8 54  1  0  0  0  0
 54 55  1  0  0  0  0
 54 56  1  0  0  0  0
 54 57  1  0  0  0  0
 57  2  1  0  0  0  0
 57 58  1  0  0  0  0
 57 59  1  0  0  0  0
  2 60  1  0  0  0  0
  1 61  1  0  0  0  0
 61 62  1  0  0  0  0
 62 63  1  0  0  0  0
 63 64  1  0  0  0  0
 64 65  1  0  0  0  0
 64 66  1  0  0  0  0
 64 67  1  0  0  0  0
 63 68  1  0  0  0  0
 63 69  1  0  0  0  0
 69 70  1  0  0  0  0
 70 71  1  0  0  0  0
 71 72  1  0  0  0  0
 72 73  1  0  0  0  0
 72 74  1  0  0  0  0
 72 75  1  0  0  0  0
 75 76  1  0  0  0  0
 76 77  1  0  0  0  0
 75 78  1  0  0  0  0
 75 79  1  0  0  0  0
 79 80  1  0  0  0  0
 80 81  1  0  0  0  0
 81 82  1  0  0  0  0
 82 83  1  0  0  0  0
 83 84  1  0  0  0  0
 84 85  1  0  0  0  0
 84 86  1  0  0  0  0
 84 87  1  0  0  0  0
 83 88  1  0  0  0  0
 83 89  1  0  0  0  0
 89 90  1  0  0  0  0
 90 91  1  0  0  0  0
 89 92  1  0  0  0  0
 89 93  1  0  0  0  0
 93 94  1  0  0  0  0
 94 95  1  0  0  0  0
 93 96  1  0  0  0  0
 93 97  1  0  0  0  0
 97 81  1  0  0  0  0
 97 98  1  0  0  0  0
 97 99  1  0  0  0  0
 81100  1  0  0  0  0
 79101  1  0  0  0  0
 79102  1  0  0  0  0
102103  1  0  0  0  0
103104  1  0  0  0  0
103105  1  0  0  0  0
103106  1  0  0  0  0
102107  1  0  0  0  0
102108  1  0  0  0  0
108 71  1  0  0  0  0
 71109  1  0  0  0  0
 69110  1  0  0  0  0
 69111  1  0  0  0  0
111112  1  0  0  0  0
112113  1  0  0  0  0
111114  1  0  0  0  0
111115  1  0  0  0  0
115 61  1  0  0  0  0
115116  1  0  0  0  0
115117  1  0  0  0  0
 61118  1  0  0  0  0
M  END
> <CAS>
71-63-6

> <NAME>
DIGITOXIN

> <preferred_name>
Digitoxin

> <iupac>
(3beta,5beta)-3-{[2,6-dideoxy-beta-D-ribo-hexopyranosyl-(1->4)-2,6-dideoxy-beta-D-ribo-hexopyranosyl-(1->4)-2,6-dideoxy-beta-D-ribo-hexopyranosyl]oxy}-14-hydroxycard-20(22)-enolide

> <SMILES>
C[C@]12CC[C@@H](C[C@H]1CC[C@@H]1[C@@H]2CC[C@]2(C)[C@H](CC[C@@]21O)C1COC(=O)C=1)O[C@H]1C[C@H](O)[C@H](O[C@H]2C[C@H](O)[C@H](O[C@H]3C[C@H](O)[C@H](O)[C@@H](C)O3)[C@@H](C)O2)[C@@H](C)O1

> <Canonical_QSARr>
CC12CCC(CC1CCC1C2CCC2(C)C(CCC21O)C1COC(=O)C=1)OC1CC(O)C(OC2CC(O)C(OC3CC(O)C(O)C(C)O3)C(C)O2)C(C)O1

> <InChI_Code_QSARr>
InChI=1S/C41H64O13/c1-20-36(46)29(42)16-34(49-20)53-38-22(3)51-35(18-31(38)44)54-37-21(2)50-33(17-30(37)43)52-25-8-11-39(4)24(15-25)6-7-28-27(39)9-12-40(5)26(10-13-41(28,40)47)23-14-32(45)48-19-23/h14,20-22,24-31,33-38,42-44,46-47H,6-13,15-19H2,1-5H3

> <InChI Key_QSARr>
WDJUZGPOPHTGOT-UHFFFAOYSA-N

> <Salt_Solvent>
?

> <WS Temperature>
25

> <WS Reference>
YALKOWSKY,SH & DANNENFELSER,RM (1992)

> <dsstox_substance_id>
DTXSID0022933

> <LogMolar>
-5.2926

$$$$
72-43-5
  -INDIGO-01081615412D

 36 37  0  0  0  0  0  0  0  0999 V2000
    1.3856   -0.8000    0.0000 Cl  0  0  0  0  0  0  0  0  0  0  0  0
   -0.0000   -1.6000    0.0000 C   0  0  0  0  0  0  0  0  0  0  0  0
   -0.0000   -3.2000    0.0000 Cl  0  0  0  0  0  0  0  0  0  0  0  0
    1.3856   -2.4000    0.0000 Cl  0  0  0  0  0  0  0  0  0  0  0  0
   -0.0000    0.0001    0.0000 C   0  0  0  0  0  0  0  0  0  0  0  0
    1.5034    0.5473    0.0000 C   0  0  0  0  0  0  0  0  0  0  0  0
    2.7293   -0.4812    0.0000 C   0  0  0  0  0  0  0  0  0  0  0  0
    2.7293   -2.0812    0.0000 H   0  0  0  0  0  0  0  0  0  0  0  0
    4.2327    0.0660    0.0000 C   0  0  0  0  0  0  0  0  0  0  0  0
    5.4583   -0.9625    0.0000 H   0  0  0  0  0  0  0  0  0  0  0  0
    4.5105    1.6417    0.0000 C   0  0  0  0  0  0  0  0  0  0  0  0
    6.0139    2.1890    0.0000 O   0  0  0  0  0  0  0  0  0  0  0  0
    6.2920    3.7647    0.0000 C   0  0  0  0  0  0  0  0  0  0  0  0
    7.7954    4.3119    0.0000 H   0  0  0  0  0  0  0  0  0  0  0  0
    6.5697    5.3403    0.0000 H   0  0  0  0  0  0  0  0  0  0  0  0
    7.5176    2.7362    0.0000 H   0  0  0  0  0  0  0  0  0  0  0  0
    3.2849    2.6701    0.0000 C   0  0  0  0  0  0  0  0  0  0  0  0
    3.5626    4.2459    0.0000 H   0  0  0  0  0  0  0  0  0  0  0  0
    1.7814    2.1229    0.0000 C   0  0  0  0  0  0  0  0  0  0  0  0
    0.5556    3.1514    0.0000 H   0  0  0  0  0  0  0  0  0  0  0  0
   -1.5999    0.0001    0.0000 C   0  0  0  0  0  0  0  0  0  0  0  0
   -2.3999    1.3856    0.0000 C   0  0  0  0  0  0  0  0  0  0  0  0
   -1.5999    2.7712    0.0000 H   0  0  0  0  0  0  0  0  0  0  0  0
   -4.0000    1.3856    0.0000 C   0  0  0  0  0  0  0  0  0  0  0  0
   -4.8000    2.7712    0.0000 H   0  0  0  0  0  0  0  0  0  0  0  0
   -4.8000    0.0001    0.0000 C   0  0  0  0  0  0  0  0  0  0  0  0
   -6.3999    0.0001    0.0000 O   0  0  0  0  0  0  0  0  0  0  0  0
   -7.2001    1.3856    0.0000 C   0  0  0  0  0  0  0  0  0  0  0  0
   -8.8000    1.3856    0.0000 H   0  0  0  0  0  0  0  0  0  0  0  0
   -8.0000    2.7712    0.0000 H   0  0  0  0  0  0  0  0  0  0  0  0
   -8.0000    0.0001    0.0000 H   0  0  0  0  0  0  0  0  0  0  0  0
   -4.0000   -1.3856    0.0000 C   0  0  0  0  0  0  0  0  0  0  0  0
   -4.8000   -2.7713    0.0000 H   0  0  0  0  0  0  0  0  0  0  0  0
   -2.3999   -1.3856    0.0000 C   0  0  0  0  0  0  0  0  0  0  0  0
   -1.5999   -2.7713    0.0000 H   0  0  0  0  0  0  0  0  0  0  0  0
   -0.0000    1.6000    0.0000 H   0  0  0  0  0  0  0  0  0  0  0  0
  1  2  1  0  0  0  0
  2  3  1  0  0  0  0
  2  4  1  0  0  0  0
  2  5  1  0  0  0  0
  5  6  1  0  0  0  0
  6  7  4  0  0  0  0
  7  8  1  0  0  0  0
  7  9  4  0  0  0  0
  9 10  1  0  0  0  0
  9 11  4  0  0  0  0
 11 12  1  0  0  0  0
 12 13  1  0  0  0  0
 13 14  1  0  0  0  0
 13 15  1  0  0  0  0
 13 16  1  0  0  0  0
 11 17  4  0  0  0  0
 17 18  1  0  0  0  0
 17 19  4  0  0  0  0
 19  6  4  0  0  0  0
 19 20  1  0  0  0  0
  5 21  1  0  0  0  0
 21 22  4  0  0  0  0
 22 23  1  0  0  0  0
 22 24  4  0  0  0  0
 24 25  1  0  0  0  0
 24 26  4  0  0  0  0
 26 27  1  0  0  0  0
 27 28  1  0  0  0  0
 28 29  1  0  0  0  0
 28 30  1  0  0  0  0
 28 31  1  0  0  0  0
 26 32  4  0  0  0  0
 32 33  1  0  0  0  0
 32 34  4  0  0  0  0
 34 21  4  0  0  0  0
 34 35  1  0  0  0  0
  5 36  1  0  0  0  0
M  END
> <CAS>
72-43-5

> <NAME>
METHOXYCHLOR

> <preferred_name>
Methoxychlor

> <iupac>
1,1'-(2,2,2-trichloroethane-1,1-diyl)bis(4-methoxybenzene)

> <SMILES>
COc1ccc(cc1)C(c1ccc(cc1)OC)C(Cl)(Cl)Cl

> <Canonical_QSARr>
COc1ccc(cc1)C(c1ccc(cc1)OC)C(Cl)(Cl)Cl

> <InChI_Code_QSARr>
InChI=1S/C16H15Cl3O2/c1-20-13-7-3-11(4-8-13)15(16(17,18)19)12-5-9-14(21-2)10-6-12/h3-10,15H,1-2H3

> <InChI Key_QSARr>
IAKOZHOLGAGEJT-UHFFFAOYSA-N

> <Salt_Solvent>
?

> <WS Temperature>
25

> <WS Reference>
RICHARDSON,LT & MILLER,DM (1960)

> <dsstox_substance_id>
DTXSID9020827

> <LogMolar>
-6.5386

$$$$
72-56-0
  -INDIGO-01081615412D

 40 41  0  0  0  0  0  0  0  0999 V2000
    1.3857   -0.8000    0.0000 Cl  0  0  0  0  0  0  0  0  0  0  0  0
   -0.0001   -1.6000    0.0000 C   0  0  0  0  0  0  0  0  0  0  0  0
   -0.0001   -3.2000    0.0000 Cl  0  0  0  0  0  0  0  0  0  0  0  0
   -0.0001   -0.0001    0.0000 C   0  0  0  0  0  0  0  0  0  0  0  0
    1.5036    0.5473    0.0000 C   0  0  0  0  0  0  0  0  0  0  0  0
    2.7291   -0.4812    0.0000 C   0  0  0  0  0  0  0  0  0  0  0  0
    2.7291   -2.0813    0.0000 H   0  0  0  0  0  0  0  0  0  0  0  0
    4.2327    0.0660    0.0000 C   0  0  0  0  0  0  0  0  0  0  0  0
    5.4582   -0.9624    0.0000 H   0  0  0  0  0  0  0  0  0  0  0  0
    4.5106    1.6417    0.0000 C   0  0  0  0  0  0  0  0  0  0  0  0
    6.0140    2.1889    0.0000 C   0  0  0  0  0  0  0  0  0  0  0  0
    7.5177    2.7361    0.0000 C   0  0  0  0  0  0  0  0  0  0  0  0
    9.0210    3.2833    0.0000 H   0  0  0  0  0  0  0  0  0  0  0  0
    7.7953    4.3119    0.0000 H   0  0  0  0  0  0  0  0  0  0  0  0
    8.7432    1.7077    0.0000 H   0  0  0  0  0  0  0  0  0  0  0  0
    5.4668    3.6924    0.0000 H   0  0  0  0  0  0  0  0  0  0  0  0
    6.5613    0.6854    0.0000 H   0  0  0  0  0  0  0  0  0  0  0  0
    3.2849    2.6701    0.0000 C   0  0  0  0  0  0  0  0  0  0  0  0
    3.5627    4.2458    0.0000 H   0  0  0  0  0  0  0  0  0  0  0  0
    1.7815    2.1229    0.0000 C   0  0  0  0  0  0  0  0  0  0  0  0
    0.5557    3.1514    0.0000 H   0  0  0  0  0  0  0  0  0  0  0  0
   -1.6001   -0.0001    0.0000 C   0  0  0  0  0  0  0  0  0  0  0  0
   -2.3999    1.3856    0.0000 C   0  0  0  0  0  0  0  0  0  0  0  0
   -1.6001    2.7713    0.0000 H   0  0  0  0  0  0  0  0  0  0  0  0
   -3.9999    1.3856    0.0000 C   0  0  0  0  0  0  0  0  0  0  0  0
   -4.8000    2.7713    0.0000 H   0  0  0  0  0  0  0  0  0  0  0  0
   -4.8000   -0.0001    0.0000 C   0  0  0  0  0  0  0  0  0  0  0  0
   -6.4000   -0.0001    0.0000 C   0  0  0  0  0  0  0  0  0  0  0  0
   -8.0000   -0.0001    0.0000 C   0  0  0  0  0  0  0  0  0  0  0  0
   -9.6000   -0.0001    0.0000 H   0  0  0  0  0  0  0  0  0  0  0  0
   -8.7999    1.3856    0.0000 H   0  0  0  0  0  0  0  0  0  0  0  0
   -8.7999   -1.3856    0.0000 H   0  0  0  0  0  0  0  0  0  0  0  0
   -6.4000    1.6000    0.0000 H   0  0  0  0  0  0  0  0  0  0  0  0
   -6.4000   -1.6000    0.0000 H   0  0  0  0  0  0  0  0  0  0  0  0
   -3.9999   -1.3856    0.0000 C   0  0  0  0  0  0  0  0  0  0  0  0
   -4.8000   -2.7713    0.0000 H   0  0  0  0  0  0  0  0  0  0  0  0
   -2.3999   -1.3856    0.0000 C   0  0  0  0  0  0  0  0  0  0  0  0
   -1.6001   -2.7713    0.0000 H   0  0  0  0  0  0  0  0  0  0  0  0
   -0.0001    1.6000    0.0000 H   0  0  0  0  0  0  0  0  0  0  0  0
    1.3857   -2.4000    0.0000 H   0  0  0  0  0  0  0  0  0  0  0  0
  1  2  1  0  0  0  0
  2  3  1  0  0  0  0
  2  4  1  0  0  0  0
  4  5  1  0  0  0  0
  5  6  4  0  0  0  0
  6  7  1  0  0  0  0
  6  8  4  0  0  0  0
  8  9  1  0  0  0  0
  8 10  4  0  0  0  0
 10 11  1  0  0  0  0
 11 12  1  0  0  0  0
 12 13  1  0  0  0  0
 12 14  1  0  0  0  0
 12 15  1  0  0  0  0
 11 16  1  0  0  0  0
 11 17  1  0  0  0  0
 10 18  4  0  0  0  0
 18 19  1  0  0  0  0
 18 20  4  0  0  0  0
 20  5  4  0  0  0  0
 20 21  1  0  0  0  0
  4 22  1  0  0  0  0
 22 23  4  0  0  0  0
 23 24  1  0  0  0  0
 23 25  4  0  0  0  0
 25 26  1  0  0  0  0
 25 27  4  0  0  0  0
 27 28  1  0  0  0  0
 28 29  1  0  0  0  0
 29 30  1  0  0  0  0
 29 31  1  0  0  0  0
 29 32  1  0  0  0  0
 28 33  1  0  0  0  0
 28 34  1  0  0  0  0
 27 35  4  0  0  0  0
 35 36  1  0  0  0  0
 35 37  4  0  0  0  0
 37 22  4  0  0  0  0
 37 38  1  0  0  0  0
  4 39  1  0  0  0  0
  2 40  1  0  0  0  0
M  END
> <CAS>
72-56-0

> <NAME>
1,1-DICHLORO-2,2-BIS(ETHYLPHENYL)ETHANE

> <preferred_name>
p,p'-Ethyl-DDD

> <iupac>
1,1'-(2,2-dichloroethane-1,1-diyl)bis(4-ethylbenzene)

> <SMILES>
CCc1ccc(cc1)C(C(Cl)Cl)c1ccc(CC)cc1

> <Canonical_QSARr>
CCc1ccc(cc1)C(C(Cl)Cl)c1ccc(CC)cc1

> <InChI_Code_QSARr>
InChI=1S/C18H20Cl2/c1-3-13-5-9-15(10-6-13)17(18(19)20)16-11-7-14(4-2)8-12-16/h5-12,17-18H,3-4H2,1-2H3

> <InChI Key_QSARr>
QFMDFTQOJHFVNR-UHFFFAOYSA-N

> <Salt_Solvent>
?

> <WS Temperature>
24

> <WS Reference>
HOLLIFIELD,HC (1979)

> <dsstox_substance_id>
DTXSID4020589

> <LogMolar>
-6.4875

$$$$
74-79-3
  -INDIGO-01081615412D

 26 25  0  0  0  0  0  0  0  0999 V2000
    5.6000    1.3856    0.0000 C   0  0  0  0  0  0  0  0  0  0  0  0
    7.2001    1.3856    0.0000 N   0  0  0  0  0  0  0  0  0  0  0  0
    8.0000    2.7713    0.0000 H   0  0  0  0  0  0  0  0  0  0  0  0
    8.0000    0.0000    0.0000 H   0  0  0  0  0  0  0  0  0  0  0  0
    4.8001    0.0000    0.0000 N   0  0  0  0  0  0  0  0  0  0  0  0
    3.2000    0.0000    0.0000 C   0  0  0  0  0  0  0  0  0  0  0  0
    1.6000    0.0000    0.0000 C   0  0  0  0  0  0  0  0  0  0  0  0
   -0.0001    0.0000    0.0000 C   0  0  0  0  0  0  0  0  0  0  0  0
   -1.5999    0.0000    0.0000 C   0  0  0  0  0  0  0  0  0  0  0  0
   -1.8779   -1.5757    0.0000 N   0  0  0  0  0  0  0  0  0  0  0  0
   -3.3814   -2.1229    0.0000 H   0  0  0  0  0  0  0  0  0  0  0  0
   -0.8493   -2.8014    0.0000 H   0  0  0  0  0  0  0  0  0  0  0  0
   -3.1756    0.2779    0.0000 C   0  0  0  0  0  0  0  0  0  0  0  0
   -3.7229    1.7813    0.0000 O   0  0  0  0  0  0  0  0  0  0  0  0
   -5.2986    2.0592    0.0000 H   0  0  0  0  0  0  0  0  0  0  0  0
   -4.2042   -0.9478    0.0000 O   0  0  0  0  0  0  0  0  0  0  0  0
   -1.3221    1.5757    0.0000 H   0  0  0  0  0  0  0  0  0  0  0  0
   -0.0001    1.6000    0.0000 H   0  0  0  0  0  0  0  0  0  0  0  0
   -0.0001   -1.6000    0.0000 H   0  0  0  0  0  0  0  0  0  0  0  0
    1.6000   -1.6000    0.0000 H   0  0  0  0  0  0  0  0  0  0  0  0
    1.6000    1.6000    0.0000 H   0  0  0  0  0  0  0  0  0  0  0  0
    3.2000    1.6000    0.0000 H   0  0  0  0  0  0  0  0  0  0  0  0
    3.2000   -1.6000    0.0000 H   0  0  0  0  0  0  0  0  0  0  0  0
    5.6000   -1.3856    0.0000 H   0  0  0  0  0  0  0  0  0  0  0  0
    4.8001    2.7713    0.0000 N   0  0  0  0  0  0  0  0  0  0  0  0
    5.6000    4.1569    0.0000 H   0  0  0  0  0  0  0  0  0  0  0  0
  1  2  1  0  0  0  0
  2  3  1  0  0  0  0
  2  4  1  0  0  0  0
  1  5  1  0  0  0  0
  5  6  1  0  0  0  0
  6  7  1  0  0  0  0
  7  8  1  0  0  0  0
  8  9  1  0  0  0  0
  9 10  1  0  0  0  0
 10 11  1  0  0  0  0
 10 12  1  0  0  0  0
  9 13  1  0  0  0  0
 13 14  1  0  0  0  0
 14 15  1  0  0  0  0
 13 16  2  0  0  0  0
  9 17  1  0  0  0  0
  8 18  1  0  0  0  0
  8 19  1  0  0  0  0
  7 20  1  0  0  0  0
  7 21  1  0  0  0  0
  6 22  1  0  0  0  0
  6 23  1  0  0  0  0
  5 24  1  0  0  0  0
  1 25  2  0  0  0  0
 25 26  1  0  0  0  0
M  END
> <CAS>
74-79-3

> <NAME>
ARGININE

> <preferred_name>
L-Arginine

> <iupac>
L-arginine

> <SMILES>
NC(=N)NCCC[C@H](N)C(O)=O

> <Canonical_QSARr>
NC(=N)NCCCC(N)C(O)=O

> <InChI_Code_QSARr>
InChI=1S/C6H14N4O2/c7-4(5(11)12)2-1-3-10-6(8)9/h4H,1-3,7H2,(H,11,12)(H4,8,9,10)

> <InChI Key_QSARr>
ODKSFYDXXFIFQN-UHFFFAOYSA-N

> <Salt_Solvent>
?

> <WS Temperature>
25

> <WS Reference>
YALKOWSKY,SH & DANNENFELSER,RM (1992)

> <dsstox_substance_id>
DTXSID6041056

> <LogMolar>
0.019

$$$$
74-85-1
  -INDIGO-01081615412D

  6  5  0  0  0  0  0  0  0  0999 V2000
    0.0000    0.0000    0.0000 C   0  0  0  0  0  0  0  0  0  0  0  0
    1.6000    0.0000    0.0000 C   0  0  0  0  0  0  0  0  0  0  0  0
    2.4000    1.3856    0.0000 H   0  0  0  0  0  0  0  0  0  0  0  0
    2.4000   -1.3856    0.0000 H   0  0  0  0  0  0  0  0  0  0  0  0
   -0.8000    1.3856    0.0000 H   0  0  0  0  0  0  0  0  0  0  0  0
   -0.8000   -1.3856    0.0000 H   0  0  0  0  0  0  0  0  0  0  0  0
  1  2  2  0  0  0  0
  2  3  1  0  0  0  0
  2  4  1  0  0  0  0
  1  5  1  0  0  0  0
  1  6  1  0  0  0  0
M  END
> <CAS>
74-85-1

> <NAME>
ETHYLENE

> <preferred_name>
Ethylene

> <iupac>
ethene

> <SMILES>
C=C

> <Canonical_QSARr>
C=C

> <InChI_Code_QSARr>
InChI=1S/C2H4/c1-2/h1-2H2

> <InChI Key_QSARr>
VGGSQFUCUMXWEO-UHFFFAOYSA-N

> <Salt_Solvent>
?

> <WS Temperature>
25

> <WS Reference>
MCAULIFFE,C (1966)

> <dsstox_substance_id>
DTXSID1026378

> <LogMolar>
-2.3307

$$$$
74-89-5
  -INDIGO-01081615412D

  7  6  0  0  0  0  0  0  0  0999 V2000
    1.6000    0.0000    0.0000 N   0  0  0  0  0  0  0  0  0  0  0  0
    0.0000    0.0000    0.0000 C   0  0  0  0  0  0  0  0  0  0  0  0
   -1.6000   -0.0000    0.0000 H   0  0  0  0  0  0  0  0  0  0  0  0
   -0.8000    1.3856    0.0000 H   0  0  0  0  0  0  0  0  0  0  0  0
   -0.8000   -1.3856    0.0000 H   0  0  0  0  0  0  0  0  0  0  0  0
    2.4000    1.3856    0.0000 H   0  0  0  0  0  0  0  0  0  0  0  0
    2.4000   -1.3856    0.0000 H   0  0  0  0  0  0  0  0  0  0  0  0
  1  2  1  0  0  0  0
  2  3  1  0  0  0  0
  2  4  1  0  0  0  0
  2  5  1  0  0  0  0
  1  6  1  0  0  0  0
  1  7  1  0  0  0  0
M  END
> <CAS>
74-89-5

> <NAME>
METHYLAMINE

> <preferred_name>
Methylamine

> <iupac>
methanamine

> <SMILES>
CN

> <Canonical_QSARr>
CN

> <InChI_Code_QSARr>
InChI=1S/CH5N/c1-2/h2H2,1H3

> <InChI Key_QSARr>
BAVYZALUXZFZLV-UHFFFAOYSA-N

> <Salt_Solvent>
?

> <WS Temperature>
25

> <WS Reference>
SCHWEIZER,AE ET AL. (1978)

> <dsstox_substance_id>
DTXSID7025683

> <LogMolar>
1.5413

$$$$
74-96-4
  -INDIGO-01081615412D

  8  7  0  0  0  0  0  0  0  0999 V2000
    0.0000    0.0000    0.0000 C   0  0  0  0  0  0  0  0  0  0  0  0
    1.6000    0.0000    0.0000 C   0  0  0  0  0  0  0  0  0  0  0  0
    3.2000    0.0000    0.0000 Br  0  0  0  0  0  0  0  0  0  0  0  0
    2.4000   -1.3856    0.0000 H   0  0  0  0  0  0  0  0  0  0  0  0
    2.4000    1.3856    0.0000 H   0  0  0  0  0  0  0  0  0  0  0  0
   -1.6000   -0.0000    0.0000 H   0  0  0  0  0  0  0  0  0  0  0  0
   -0.8000   -1.3856    0.0000 H   0  0  0  0  0  0  0  0  0  0  0  0
   -0.8000    1.3856    0.0000 H   0  0  0  0  0  0  0  0  0  0  0  0
  1  2  1  0  0  0  0
  2  3  1  0  0  0  0
  2  4  1  0  0  0  0
  2  5  1  0  0  0  0
  1  6  1  0  0  0  0
  1  7  1  0  0  0  0
  1  8  1  0  0  0  0
M  END
> <CAS>
74-96-4

> <NAME>
BROMOETHANE

> <preferred_name>
Bromoethane

> <iupac>
bromoethane

> <SMILES>
CCBr

> <Canonical_QSARr>
CCBr

> <InChI_Code_QSARr>
InChI=1S/C2H5Br/c1-2-3/h2H2,1H3

> <InChI Key_QSARr>
RDHPKYGYEGBMSE-UHFFFAOYSA-N

> <Salt_Solvent>
?

> <WS Temperature>
25

> <WS Reference>
HORVATH,AL ET AL. (1999)

> <dsstox_substance_id>
DTXSID6020199

> <LogMolar>
-1.086

$$$$
75-00-3
  -INDIGO-01081615412D

  8  7  0  0  0  0  0  0  0  0999 V2000
    0.0000    0.0000    0.0000 C   0  0  0  0  0  0  0  0  0  0  0  0
    1.6000    0.0000    0.0000 C   0  0  0  0  0  0  0  0  0  0  0  0
    3.2000    0.0000    0.0000 Cl  0  0  0  0  0  0  0  0  0  0  0  0
    2.4000   -1.3856    0.0000 H   0  0  0  0  0  0  0  0  0  0  0  0
    2.4000    1.3856    0.0000 H   0  0  0  0  0  0  0  0  0  0  0  0
   -1.6000   -0.0000    0.0000 H   0  0  0  0  0  0  0  0  0  0  0  0
   -0.8000   -1.3856    0.0000 H   0  0  0  0  0  0  0  0  0  0  0  0
   -0.8000    1.3856    0.0000 H   0  0  0  0  0  0  0  0  0  0  0  0
  1  2  1  0  0  0  0
  2  3  1  0  0  0  0
  2  4  1  0  0  0  0
  2  5  1  0  0  0  0
  1  6  1  0  0  0  0
  1  7  1  0  0  0  0
  1  8  1  0  0  0  0
M  END
> <CAS>
75-00-3

> <NAME>
CHLOROETHANE

> <preferred_name>
Chloroethane

> <iupac>
chloroethane

> <SMILES>
CCCl

> <Canonical_QSARr>
CCCl

> <InChI_Code_QSARr>
InChI=1S/C2H5Cl/c1-2-3/h2H2,1H3

> <InChI Key_QSARr>
HRYZWHHZPQKTII-UHFFFAOYSA-N

> <Salt_Solvent>
?

> <WS Temperature>
25

> <WS Reference>
HORVATH,AL ET AL. (1999)

> <dsstox_substance_id>
DTXSID1020302

> <LogMolar>
-1.0553

$$$$
75-05-8
  -INDIGO-01081615412D

  6  5  0  0  0  0  0  0  0  0999 V2000
    0.0000    0.0000    0.0000 C   0  0  0  0  0  0  0  0  0  0  0  0
    1.6000    0.0000    0.0000 C   0  0  0  0  0  0  0  0  0  0  0  0
    3.2000    0.0000    0.0000 N   0  0  0  0  0  0  0  0  0  0  0  0
   -1.6000   -0.0000    0.0000 H   0  0  0  0  0  0  0  0  0  0  0  0
   -0.8000    1.3856    0.0000 H   0  0  0  0  0  0  0  0  0  0  0  0
   -0.8000   -1.3856    0.0000 H   0  0  0  0  0  0  0  0  0  0  0  0
  1  2  1  0  0  0  0
  2  3  3  0  0  0  0
  1  4  1  0  0  0  0
  1  5  1  0  0  0  0
  1  6  1  0  0  0  0
M  END
> <CAS>
75-05-8

> <NAME>
ACETONITRILE

> <preferred_name>
Acetonitrile

> <iupac>
acetonitrile

> <SMILES>
CC#N

> <Canonical_QSARr>
CC#N

> <InChI_Code_QSARr>
InChI=1S/C2H3N/c1-2-3/h1H3

> <InChI Key_QSARr>
WEVYAHXRMPXWCK-UHFFFAOYSA-N

> <Salt_Solvent>
?

> <WS Temperature>
25

> <WS Reference>
RIDDICK,JA ET AL. (1986)

> <dsstox_substance_id>
DTXSID7020009

> <LogMolar>
1.3867

$$$$
75-11-6
  -INDIGO-01081615412D

  5  4  0  0  0  0  0  0  0  0999 V2000
    0.0000    0.0000    0.0000 C   0  0  0  0  0  0  0  0  0  0  0  0
   -1.3856    0.8000    0.0000 I   0  0  0  0  0  0  0  0  0  0  0  0
   -0.0000    1.6000    0.0000 I   0  0  0  0  0  0  0  0  0  0  0  0
   -1.3856   -0.8000    0.0000 H   0  0  0  0  0  0  0  0  0  0  0  0
    1.3856   -0.8000    0.0000 H   0  0  0  0  0  0  0  0  0  0  0  0
  1  2  1  0  0  0  0
  1  3  1  0  0  0  0
  1  4  1  0  0  0  0
  1  5  1  0  0  0  0
M  END
> <CAS>
75-11-6

> <NAME>
METHYLENE IODIDE

> <preferred_name>
Methylene iodide

> <iupac>
Diiodomethane

> <SMILES>
ICI

> <Canonical_QSARr>
ICI

> <InChI_Code_QSARr>
InChI=1S/CH2I2/c2-1-3/h1H2

> <InChI Key_QSARr>
NZZFYRREKKOMAT-UHFFFAOYSA-N

> <Salt_Solvent>
?

> <WS Temperature>
25

> <WS Reference>
YALKOWSKY,SH & DANNENFELSER,RM (1992)

> <dsstox_substance_id>
DTXSID4058784

> <LogMolar>
-2.3345

$$$$
75-27-4
  -INDIGO-01081615412D

  5  4  0  0  0  0  0  0  0  0999 V2000
    1.3856   -0.8000    0.0000 Cl  0  0  0  0  0  0  0  0  0  0  0  0
    0.0000    0.0000    0.0000 C   0  0  0  0  0  0  0  0  0  0  0  0
   -1.3856    0.8000    0.0000 Br  0  0  0  0  0  0  0  0  0  0  0  0
   -0.0000    1.6000    0.0000 Cl  0  0  0  0  0  0  0  0  0  0  0  0
   -1.3856   -0.8000    0.0000 H   0  0  0  0  0  0  0  0  0  0  0  0
  1  2  1  0  0  0  0
  2  3  1  0  0  0  0
  2  4  1  0  0  0  0
  2  5  1  0  0  0  0
M  END
> <CAS>
75-27-4

> <NAME>
BROMODICHLOROMETHANE

> <preferred_name>
Bromodichloromethane

> <iupac>
bromo(dichloro)methane

> <SMILES>
ClC(Cl)Br

> <Canonical_QSARr>
ClC(Cl)Br

> <InChI_Code_QSARr>
InChI=1S/CHBrCl2/c2-1(3)4/h1H

> <InChI Key_QSARr>
FMWLUWPQPKEARP-UHFFFAOYSA-N

> <Salt_Solvent>
?

> <WS Temperature>
30

> <WS Reference>
YALKOWSKY,SH & DANNENFELSER,RM (1992)

> <dsstox_substance_id>
DTXSID1020198

> <LogMolar>
-1.7327

$$$$
75-31-0
  -INDIGO-01081615412D

 13 12  0  0  0  0  0  0  0  0999 V2000
    0.0000    0.0000    0.0000 C   0  0  0  0  0  0  0  0  0  0  0  0
    0.0000    1.6000    0.0000 N   0  0  0  0  0  0  0  0  0  0  0  0
    1.3856    2.4000    0.0000 H   0  0  0  0  0  0  0  0  0  0  0  0
   -1.3856    2.4000    0.0000 H   0  0  0  0  0  0  0  0  0  0  0  0
   -1.6000    0.0000    0.0000 C   0  0  0  0  0  0  0  0  0  0  0  0
   -3.2000    0.0000    0.0000 H   0  0  0  0  0  0  0  0  0  0  0  0
   -2.4000   -1.3856    0.0000 H   0  0  0  0  0  0  0  0  0  0  0  0
   -2.4000    1.3856    0.0000 H   0  0  0  0  0  0  0  0  0  0  0  0
    1.6000    0.0000    0.0000 C   0  0  0  0  0  0  0  0  0  0  0  0
    3.2000    0.0000    0.0000 H   0  0  0  0  0  0  0  0  0  0  0  0
    2.4000   -1.3856    0.0000 H   0  0  0  0  0  0  0  0  0  0  0  0
    2.4000    1.3856    0.0000 H   0  0  0  0  0  0  0  0  0  0  0  0
    0.0000   -1.6000    0.0000 H   0  0  0  0  0  0  0  0  0  0  0  0
  1  2  1  0  0  0  0
  2  3  1  0  0  0  0
  2  4  1  0  0  0  0
  1  5  1  0  0  0  0
  5  6  1  0  0  0  0
  5  7  1  0  0  0  0
  5  8  1  0  0  0  0
  1  9  1  0  0  0  0
  9 10  1  0  0  0  0
  9 11  1  0  0  0  0
  9 12  1  0  0  0  0
  1 13  1  0  0  0  0
M  END
> <CAS>
75-31-0

> <NAME>
ISOPROPYLAMINE

> <preferred_name>
Isopropylamine

> <iupac>
propan-2-amine

> <SMILES>
CC(C)N

> <Canonical_QSARr>
CC(C)N

> <InChI_Code_QSARr>
InChI=1S/C3H9N/c1-3(2)4/h3H,4H2,1-2H3

> <InChI Key_QSARr>
JJWLVOIRVHMVIS-UHFFFAOYSA-N

> <Salt_Solvent>
?

> <WS Temperature>
20

> <WS Reference>
YALKOWSKY,SH & DANNENFELSER,RM (1992)

> <dsstox_substance_id>
DTXSID2025682

> <LogMolar>
1.2283

$$$$
75-38-7
  -INDIGO-01081615412D

  6  5  0  0  0  0  0  0  0  0999 V2000
    0.0000    0.0000    0.0000 C   0  0  0  0  0  0  0  0  0  0  0  0
    1.6000    0.0000    0.0000 C   0  0  0  0  0  0  0  0  0  0  0  0
    2.4000    1.3856    0.0000 F   0  0  0  0  0  0  0  0  0  0  0  0
    2.4000   -1.3856    0.0000 F   0  0  0  0  0  0  0  0  0  0  0  0
   -0.8000    1.3856    0.0000 H   0  0  0  0  0  0  0  0  0  0  0  0
   -0.8000   -1.3856    0.0000 H   0  0  0  0  0  0  0  0  0  0  0  0
  1  2  2  0  0  0  0
  2  3  1  0  0  0  0
  2  4  1  0  0  0  0
  1  5  1  0  0  0  0
  1  6  1  0  0  0  0
M  END
> <CAS>
75-38-7

> <NAME>
1,1-DIFLUOROETHENE

> <preferred_name>
Vinylidene fluoride

> <iupac>
1,1-difluoroethene

> <SMILES>
C=C(F)F

> <Canonical_QSARr>
C=C(F)F

> <InChI_Code_QSARr>
InChI=1S/C2H2F2/c1-2(3)4/h1H2

> <InChI Key_QSARr>
BQCIDUSAKPWEOX-UHFFFAOYSA-N

> <Salt_Solvent>
?

> <WS Temperature>
25

> <WS Reference>
HORVATH,AL (1982)

> <dsstox_substance_id>
DTXSID3021439

> <LogMolar>
-0.7061

$$$$
75-47-8
  -INDIGO-01081615412D

  5  4  0  0  0  0  0  0  0  0999 V2000
    1.3856   -0.8000    0.0000 I   0  0  0  0  0  0  0  0  0  0  0  0
    0.0000    0.0000    0.0000 C   0  0  0  0  0  0  0  0  0  0  0  0
   -1.3856    0.8000    0.0000 I   0  0  0  0  0  0  0  0  0  0  0  0
   -0.0000    1.6000    0.0000 I   0  0  0  0  0  0  0  0  0  0  0  0
   -1.3856   -0.8000    0.0000 H   0  0  0  0  0  0  0  0  0  0  0  0
  1  2  1  0  0  0  0
  2  3  1  0  0  0  0
  2  4  1  0  0  0  0
  2  5  1  0  0  0  0
M  END
> <CAS>
75-47-8

> <NAME>
IODOFORM

> <preferred_name>
Iodoform

> <iupac>
triiodomethane

> <SMILES>
IC(I)I

> <Canonical_QSARr>
IC(I)I

> <InChI_Code_QSARr>
InChI=1S/CHI3/c2-1(3)4/h1H

> <InChI Key_QSARr>
OKJPEAGHQZHRQV-UHFFFAOYSA-N

> <Salt_Solvent>
?

> <WS Temperature>


> <WS Reference>
YALKOWSKY,SH & DANNENFELSER,RM (1992)

> <dsstox_substance_id>
DTXSID4020743

> <LogMolar>
-3.5952

$$$$
75-56-9
  -INDIGO-01081615412D

 10 10  0  0  0  0  0  0  0  0999 V2000
   -1.5035   -0.5473    0.0000 C   0  0  0  0  0  0  0  0  0  0  0  0
   -0.0000    0.0000    0.0000 C   0  0  0  0  0  0  0  0  0  0  0  0
    0.8000   -1.3856    0.0000 O   0  0  0  0  0  0  0  0  0  0  0  0
    1.6000    0.0000    0.0000 C   0  0  0  0  0  0  0  0  0  0  0  0
    3.1035   -0.5473    0.0000 H   0  0  0  0  0  0  0  0  0  0  0  0
    1.8779    1.5757    0.0000 H   0  0  0  0  0  0  0  0  0  0  0  0
   -0.2779    1.5757    0.0000 H   0  0  0  0  0  0  0  0  0  0  0  0
   -3.0070   -1.0945    0.0000 H   0  0  0  0  0  0  0  0  0  0  0  0
   -2.7292    0.4812    0.0000 H   0  0  0  0  0  0  0  0  0  0  0  0
   -1.7814   -2.1229    0.0000 H   0  0  0  0  0  0  0  0  0  0  0  0
  1  2  1  0  0  0  0
  2  3  1  0  0  0  0
  3  4  1  0  0  0  0
  4  2  1  0  0  0  0
  4  5  1  0  0  0  0
  4  6  1  0  0  0  0
  2  7  1  0  0  0  0
  1  8  1  0  0  0  0
  1  9  1  0  0  0  0
  1 10  1  0  0  0  0
M  END
> <CAS>
75-56-9

> <NAME>
PROPYLENE OXIDE

> <preferred_name>
1,2-Propylene oxide

> <iupac>
2-methyloxirane

> <SMILES>
CC1CO1

> <Canonical_QSARr>
CC1CO1

> <InChI_Code_QSARr>
InChI=1S/C3H6O/c1-3-2-4-3/h3H,2H2,1H3

> <InChI Key_QSARr>
GOOHAUXETOMSMM-UHFFFAOYSA-N

> <Salt_Solvent>
?

> <WS Temperature>
25

> <WS Reference>
BOGYO,DA ET AL. (1980)

> <dsstox_substance_id>
DTXSID5021207

> <LogMolar>
1.0068

$$$$
75-65-0
  -INDIGO-01081615412D

 15 14  0  0  0  0  0  0  0  0999 V2000
    0.0000    0.0000    0.0000 C   0  0  0  0  0  0  0  0  0  0  0  0
   -1.3856   -0.8000    0.0000 O   0  0  0  0  0  0  0  0  0  0  0  0
   -1.3856   -2.4000    0.0000 H   0  0  0  0  0  0  0  0  0  0  0  0
   -0.8000    1.3856    0.0000 C   0  0  0  0  0  0  0  0  0  0  0  0
   -1.6000    2.7713    0.0000 H   0  0  0  0  0  0  0  0  0  0  0  0
   -2.4000    1.3856    0.0000 H   0  0  0  0  0  0  0  0  0  0  0  0
    0.0000    2.7713    0.0000 H   0  0  0  0  0  0  0  0  0  0  0  0
    1.3856    0.8000    0.0000 C   0  0  0  0  0  0  0  0  0  0  0  0
    2.7713    1.6000    0.0000 H   0  0  0  0  0  0  0  0  0  0  0  0
    2.7713    0.0000    0.0000 H   0  0  0  0  0  0  0  0  0  0  0  0
    1.3856    2.4000    0.0000 H   0  0  0  0  0  0  0  0  0  0  0  0
    0.8000   -1.3856    0.0000 C   0  0  0  0  0  0  0  0  0  0  0  0
    1.6000   -2.7713    0.0000 H   0  0  0  0  0  0  0  0  0  0  0  0
    0.0000   -2.7713    0.0000 H   0  0  0  0  0  0  0  0  0  0  0  0
    2.4000   -1.3856    0.0000 H   0  0  0  0  0  0  0  0  0  0  0  0
  1  2  1  0  0  0  0
  2  3  1  0  0  0  0
  1  4  1  0  0  0  0
  4  5  1  0  0  0  0
  4  6  1  0  0  0  0
  4  7  1  0  0  0  0
  1  8  1  0  0  0  0
  8  9  1  0  0  0  0
  8 10  1  0  0  0  0
  8 11  1  0  0  0  0
  1 12  1  0  0  0  0
 12 13  1  0  0  0  0
 12 14  1  0  0  0  0
 12 15  1  0  0  0  0
M  END
> <CAS>
75-65-0

> <NAME>
T-BUTANOL

> <preferred_name>
tert-Butyl alcohol

> <iupac>
2-methylpropan-2-ol

> <SMILES>
CC(C)(C)O

> <Canonical_QSARr>
CC(C)(C)O

> <InChI_Code_QSARr>
InChI=1S/C4H10O/c1-4(2,3)5/h5H,1-3H3

> <InChI Key_QSARr>
DKGAVHZHDRPRBM-UHFFFAOYSA-N

> <Salt_Solvent>
?

> <WS Temperature>
25

> <WS Reference>
RIDDICK,JA ET AL. (1986)

> <dsstox_substance_id>
DTXSID8020204

> <LogMolar>
1.13

$$$$
75-72-9
  -INDIGO-01081615412D

  5  4  0  0  0  0  0  0  0  0999 V2000
    0.0000    0.0000    0.0000 C   0  0  0  0  0  0  0  0  0  0  0  0
   -1.3856    0.8000    0.0000 Cl  0  0  0  0  0  0  0  0  0  0  0  0
   -0.0000    1.6000    0.0000 F   0  0  0  0  0  0  0  0  0  0  0  0
   -1.3856   -0.8000    0.0000 F   0  0  0  0  0  0  0  0  0  0  0  0
    1.3856   -0.8000    0.0000 F   0  0  0  0  0  0  0  0  0  0  0  0
  1  2  1  0  0  0  0
  1  3  1  0  0  0  0
  1  4  1  0  0  0  0
  1  5  1  0  0  0  0
M  END
> <CAS>
75-72-9

> <NAME>
CHLOROTRIFLUOROMETHANE

> <preferred_name>
Chlorotrifluoromethane

> <iupac>
chloro(trifluoro)methane

> <SMILES>
FC(F)(F)Cl

> <Canonical_QSARr>
FC(F)(F)Cl

> <InChI_Code_QSARr>
InChI=1S/CClF3/c2-1(3,4)5

> <InChI Key_QSARr>
AFYPFACVUDMOHA-UHFFFAOYSA-N

> <Salt_Solvent>
?

> <WS Temperature>
25

> <WS Reference>
RIDDICK,JA ET AL. (1986)

> <dsstox_substance_id>
DTXSID4052500

> <LogMolar>
-3.0647

$$$$
75-86-5
  -INDIGO-01081615412D

 13 12  0  0  0  0  0  0  0  0999 V2000
    0.0000    0.0000    0.0000 C   0  0  0  0  0  0  0  0  0  0  0  0
    1.3856    0.8000    0.0000 C   0  0  0  0  0  0  0  0  0  0  0  0
    2.7713    1.6000    0.0000 N   0  0  0  0  0  0  0  0  0  0  0  0
   -1.3856   -0.8000    0.0000 O   0  0  0  0  0  0  0  0  0  0  0  0
   -1.3856   -2.4000    0.0000 H   0  0  0  0  0  0  0  0  0  0  0  0
   -0.8000    1.3856    0.0000 C   0  0  0  0  0  0  0  0  0  0  0  0
   -1.6000    2.7713    0.0000 H   0  0  0  0  0  0  0  0  0  0  0  0
   -2.4000    1.3856    0.0000 H   0  0  0  0  0  0  0  0  0  0  0  0
    0.0000    2.7713    0.0000 H   0  0  0  0  0  0  0  0  0  0  0  0
    0.8000   -1.3856    0.0000 C   0  0  0  0  0  0  0  0  0  0  0  0
    1.6000   -2.7713    0.0000 H   0  0  0  0  0  0  0  0  0  0  0  0
    0.0000   -2.7713    0.0000 H   0  0  0  0  0  0  0  0  0  0  0  0
    2.4000   -1.3856    0.0000 H   0  0  0  0  0  0  0  0  0  0  0  0
  1  2  1  0  0  0  0
  2  3  3  0  0  0  0
  1  4  1  0  0  0  0
  4  5  1  0  0  0  0
  1  6  1  0  0  0  0
  6  7  1  0  0  0  0
  6  8  1  0  0  0  0
  6  9  1  0  0  0  0
  1 10  1  0  0  0  0
 10 11  1  0  0  0  0
 10 12  1  0  0  0  0
 10 13  1  0  0  0  0
M  END
> <CAS>
75-86-5

> <NAME>
ACETONE CYANOHYDRIN

> <preferred_name>
2-Hydroxy-2-methylpropanenitrile

> <iupac>
2-hydroxy-2-methylpropanenitrile

> <SMILES>
CC(C)(O)C#N

> <Canonical_QSARr>
CC(C)(O)C#N

> <InChI_Code_QSARr>
InChI=1S/C4H7NO/c1-4(2,6)3-5/h6H,1-2H3

> <InChI Key_QSARr>
MWFMGBPGAXYFAR-UHFFFAOYSA-N

> <Salt_Solvent>
?

> <WS Temperature>


> <WS Reference>
SMILEY,RA (1981)

> <dsstox_substance_id>
DTXSID7025427

> <LogMolar>
1.07

$$$$
75-96-7
  -INDIGO-01081615412D

  8  7  0  0  0  0  0  0  0  0999 V2000
    2.4000    1.3856    0.0000 O   0  0  0  0  0  0  0  0  0  0  0  0
    1.6000    0.0000    0.0000 C   0  0  0  0  0  0  0  0  0  0  0  0
    2.4000   -1.3856    0.0000 O   0  0  0  0  0  0  0  0  0  0  0  0
   -0.0000    0.0000    0.0000 C   0  0  0  0  0  0  0  0  0  0  0  0
   -1.6000   -0.0000    0.0000 Br  0  0  0  0  0  0  0  0  0  0  0  0
   -0.8000    1.3856    0.0000 Br  0  0  0  0  0  0  0  0  0  0  0  0
   -0.8000   -1.3856    0.0000 Br  0  0  0  0  0  0  0  0  0  0  0  0
    4.0000    1.3856    0.0000 H   0  0  0  0  0  0  0  0  0  0  0  0
  1  2  1  0  0  0  0
  2  3  2  0  0  0  0
  2  4  1  0  0  0  0
  4  5  1  0  0  0  0
  4  6  1  0  0  0  0
  4  7  1  0  0  0  0
  1  8  1  0  0  0  0
M  END
> <CAS>
75-96-7

> <NAME>
Acetic acid, tribromo-

> <preferred_name>
Tribromoacetic acid

> <iupac>
tribromoacetic acid

> <SMILES>
OC(=O)C(Br)(Br)Br

> <Canonical_QSARr>
OC(=O)C(Br)(Br)Br

> <InChI_Code_QSARr>
InChI=1S/C2HBr3O2/c3-2(4,5)1(6)7/h(H,6,7)

> <InChI Key_QSARr>
QIONYIKHPASLHO-UHFFFAOYSA-N

> <Salt_Solvent>
?

> <WS Temperature>
25

> <WS Reference>
BOWDEN,DJ ET AL. (1998A)

> <dsstox_substance_id>
DTXSID6021668

> <LogMolar>
-0.1713

$$$$
76-00-6
  -INDIGO-01081615412D

 12 11  0  0  0  0  0  0  0  0999 V2000
    1.6000    0.0000    0.0000 C   0  0  0  0  0  0  0  0  0  0  0  0
    3.2000    0.0000    0.0000 Cl  0  0  0  0  0  0  0  0  0  0  0  0
    2.4000   -1.3856    0.0000 Cl  0  0  0  0  0  0  0  0  0  0  0  0
    2.4000    1.3856    0.0000 Cl  0  0  0  0  0  0  0  0  0  0  0  0
    0.0000    0.0000    0.0000 C   0  0  0  0  0  0  0  0  0  0  0  0
    0.0000    1.6000    0.0000 O   0  0  0  0  0  0  0  0  0  0  0  0
    1.3856    2.4000    0.0000 H   0  0  0  0  0  0  0  0  0  0  0  0
   -1.6000    0.0000    0.0000 C   0  0  0  0  0  0  0  0  0  0  0  0
   -3.2000    0.0000    0.0000 H   0  0  0  0  0  0  0  0  0  0  0  0
   -2.4000   -1.3856    0.0000 H   0  0  0  0  0  0  0  0  0  0  0  0
   -2.4000    1.3856    0.0000 H   0  0  0  0  0  0  0  0  0  0  0  0
    0.0000   -1.6000    0.0000 H   0  0  0  0  0  0  0  0  0  0  0  0
  1  2  1  0  0  0  0
  1  3  1  0  0  0  0
  1  4  1  0  0  0  0
  1  5  1  0  0  0  0
  5  6  1  0  0  0  0
  6  7  1  0  0  0  0
  5  8  1  0  0  0  0
  8  9  1  0  0  0  0
  8 10  1  0  0  0  0
  8 11  1  0  0  0  0
  5 12  1  0  0  0  0
M  END
> <CAS>
76-00-6

> <NAME>
1,1,1-Trichloro-2-propanol

> <preferred_name>


> <iupac>


> <SMILES>
CC(O)C(Cl)(Cl)Cl

> <Canonical_QSARr>
CC(O)C(Cl)(Cl)Cl

> <InChI_Code_QSARr>
InChI=1S/C3H5Cl3O/c1-2(7)3(4,5)6/h2,7H,1H3

> <InChI Key_QSARr>
HCMBPASAOZIEDZ-UHFFFAOYSA-N

> <Salt_Solvent>
?

> <WS Temperature>


> <WS Reference>
MERCK INDEX (1996)

> <dsstox_substance_id>


> <LogMolar>
-0.7574

$$$$
76-05-1
  -INDIGO-01081615412D

  8  7  0  0  0  0  0  0  0  0999 V2000
    1.6000    0.0000    0.0000 C   0  0  0  0  0  0  0  0  0  0  0  0
   -0.0000    0.0000    0.0000 C   0  0  0  0  0  0  0  0  0  0  0  0
   -1.6000   -0.0000    0.0000 F   0  0  0  0  0  0  0  0  0  0  0  0
   -0.8000    1.3856    0.0000 F   0  0  0  0  0  0  0  0  0  0  0  0
   -0.8000   -1.3856    0.0000 F   0  0  0  0  0  0  0  0  0  0  0  0
    2.4000    1.3856    0.0000 O   0  0  0  0  0  0  0  0  0  0  0  0
    4.0000    1.3856    0.0000 H   0  0  0  0  0  0  0  0  0  0  0  0
    2.4000   -1.3856    0.0000 O   0  0  0  0  0  0  0  0  0  0  0  0
  1  2  1  0  0  0  0
  2  3  1  0  0  0  0
  2  4  1  0  0  0  0
  2  5  1  0  0  0  0
  1  6  1  0  0  0  0
  6  7  1  0  0  0  0
  1  8  2  0  0  0  0
M  END
> <CAS>
76-05-1

> <NAME>
TRIFLUOROACETIC ACID

> <preferred_name>
Acetic acid, trifluoro-

> <iupac>
trifluoroacetic acid

> <SMILES>
OC(=O)C(F)(F)F

> <Canonical_QSARr>
OC(=O)C(F)(F)F

> <InChI_Code_QSARr>
InChI=1S/C2HF3O2/c3-2(4,5)1(6)7/h(H,6,7)

> <InChI Key_QSARr>
DTQVDTLACAAQTR-UHFFFAOYSA-N

> <Salt_Solvent>
?

> <WS Temperature>
20

> <WS Reference>
RIDDICK,JA ET AL. (1986)

> <dsstox_substance_id>
DTXSID9041578

> <LogMolar>
0.943

$$$$
76-13-1
  -INDIGO-01081615412D

  8  7  0  0  0  0  0  0  0  0999 V2000
    0.0000    0.0000    0.0000 C   0  0  0  0  0  0  0  0  0  0  0  0
   -1.6000   -0.0000    0.0000 Cl  0  0  0  0  0  0  0  0  0  0  0  0
   -0.8000   -1.3856    0.0000 F   0  0  0  0  0  0  0  0  0  0  0  0
   -0.8000    1.3856    0.0000 F   0  0  0  0  0  0  0  0  0  0  0  0
    1.6000    0.0000    0.0000 C   0  0  0  0  0  0  0  0  0  0  0  0
    3.2000    0.0000    0.0000 Cl  0  0  0  0  0  0  0  0  0  0  0  0
    2.4000   -1.3856    0.0000 Cl  0  0  0  0  0  0  0  0  0  0  0  0
    2.4000    1.3856    0.0000 F   0  0  0  0  0  0  0  0  0  0  0  0
  1  2  1  0  0  0  0
  1  3  1  0  0  0  0
  1  4  1  0  0  0  0
  1  5  1  0  0  0  0
  5  6  1  0  0  0  0
  5  7  1  0  0  0  0
  5  8  1  0  0  0  0
M  END
> <CAS>
76-13-1

> <NAME>
1,1,2-TRICHLOROTRIFLUOROETHANE

> <preferred_name>
1,1,2-Trichloro-1,2,2-trifluoroethane

> <iupac>
1,1,2-trichloro-1,2,2-trifluoroethane

> <SMILES>
FC(F)(Cl)C(F)(Cl)Cl

> <Canonical_QSARr>
FC(F)(Cl)C(F)(Cl)Cl

> <InChI_Code_QSARr>
InChI=1S/C2Cl3F3/c3-1(4,6)2(5,7)8

> <InChI Key_QSARr>
AJDIZQLSFPQPEY-UHFFFAOYSA-N

> <Salt_Solvent>
?

> <WS Temperature>
25

> <WS Reference>
HORVATH,AL ET AL. (1999)

> <dsstox_substance_id>
DTXSID6021377

> <LogMolar>
-3.0423

$$$$
76-25-5
  -INDIGO-01081615412D

 62 66  0  0  0  0  0  0  0  0999 V2000
    1.5650   -0.3326    0.0000 C   0  0  0  0  0  0  0  0  0  0  0  0
    1.3978    1.2585    0.0000 C   0  0  0  0  0  0  0  0  0  0  0  0
    2.6923    2.1991    0.0000 C   0  0  0  0  0  0  0  0  0  0  0  0
    3.9865    3.1394    0.0000 O   0  0  0  0  0  0  0  0  0  0  0  0
    3.8193    4.7307    0.0000 H   0  0  0  0  0  0  0  0  0  0  0  0
    1.7518    3.4935    0.0000 H   0  0  0  0  0  0  0  0  0  0  0  0
    3.6328    0.9046    0.0000 H   0  0  0  0  0  0  0  0  0  0  0  0
    1.6303    1.8986    0.0000 O   0  0  0  0  0  0  0  0  0  0  0  0
    3.0267    0.3181    0.0000 O   0  0  0  0  0  0  0  0  0  0  0  0
    4.0972   -0.8709    0.0000 C   0  0  0  0  0  0  0  0  0  0  0  0
    5.3917   -1.8114    0.0000 C   0  0  0  0  0  0  0  0  0  0  0  0
    6.6862   -2.7518    0.0000 H   0  0  0  0  0  0  0  0  0  0  0  0
    6.8534   -1.1605    0.0000 H   0  0  0  0  0  0  0  0  0  0  0  0
    5.2245   -3.4026    0.0000 H   0  0  0  0  0  0  0  0  0  0  0  0
    5.1680    0.3181    0.0000 C   0  0  0  0  0  0  0  0  0  0  0  0
    6.2386    1.5072    0.0000 H   0  0  0  0  0  0  0  0  0  0  0  0
    6.7329   -0.0146    0.0000 H   0  0  0  0  0  0  0  0  0  0  0  0
    4.6734    1.8397    0.0000 H   0  0  0  0  0  0  0  0  0  0  0  0
    3.2974   -2.2566    0.0000 O   0  0  0  0  0  0  0  0  0  0  0  0
    1.7322   -1.9239    0.0000 C   0  0  0  0  0  0  0  0  0  0  0  0
    1.8994   -3.5152    0.0000 H   0  0  0  0  0  0  0  0  0  0  0  0
    0.2705   -2.5747    0.0000 C   0  0  0  0  0  0  0  0  0  0  0  0
   -0.8409   -3.7256    0.0000 H   0  0  0  0  0  0  0  0  0  0  0  0
    1.0707   -3.9604    0.0000 H   0  0  0  0  0  0  0  0  0  0  0  0
   -0.8000   -1.3856    0.0000 C   0  0  0  0  0  0  0  0  0  0  0  0
   -2.4000   -1.3856    0.0000 C   0  0  0  0  0  0  0  0  0  0  0  0
   -3.1999   -2.7713    0.0000 C   0  0  0  0  0  0  0  0  0  0  0  0
   -3.4778   -4.3470    0.0000 H   0  0  0  0  0  0  0  0  0  0  0  0
   -1.8143   -3.5713    0.0000 H   0  0  0  0  0  0  0  0  0  0  0  0
   -4.7999   -2.7713    0.0000 C   0  0  0  0  0  0  0  0  0  0  0  0
   -6.3035   -3.3185    0.0000 H   0  0  0  0  0  0  0  0  0  0  0  0
   -4.5222   -4.3470    0.0000 H   0  0  0  0  0  0  0  0  0  0  0  0
   -5.6001   -1.3856    0.0000 C   0  0  0  0  0  0  0  0  0  0  0  0
   -7.2001   -1.3856    0.0000 C   0  0  0  0  0  0  0  0  0  0  0  0
   -8.0000   -0.0000    0.0000 C   0  0  0  0  0  0  0  0  0  0  0  0
   -9.6000   -0.0000    0.0000 O   0  0  0  0  0  0  0  0  0  0  0  0
   -7.2001    1.3857    0.0000 C   0  0  0  0  0  0  0  0  0  0  0  0
   -5.6001    1.3857    0.0000 C   0  0  0  0  0  0  0  0  0  0  0  0
   -4.7999    2.7713    0.0000 H   0  0  0  0  0  0  0  0  0  0  0  0
   -4.7999   -0.0000    0.0000 C   0  0  0  0  0  0  0  0  0  0  0  0
   -4.3887    0.4903    0.0000 C   0  0  0  0  0  0  0  0  0  0  0  0
   -4.0000    1.3857    0.0000 H   0  0  0  0  0  0  0  0  0  0  0  0
   -4.9358    1.9938    0.0000 H   0  0  0  0  0  0  0  0  0  0  0  0
   -5.9644    0.7680    0.0000 H   0  0  0  0  0  0  0  0  0  0  0  0
   -3.1999   -0.0000    0.0000 C   0  0  0  0  0  0  0  0  0  0  0  0
   -3.2908    0.9718    0.0000 F   0  0  0  0  0  0  0  0  0  0  0  0
   -2.4000    1.3857    0.0000 C   0  0  0  0  0  0  0  0  0  0  0  0
   -2.1221    2.9613    0.0000 O   0  0  0  0  0  0  0  0  0  0  0  0
   -3.3478    3.9898    0.0000 H   0  0  0  0  0  0  0  0  0  0  0  0
   -0.8000    1.3857    0.0000 C   0  0  0  0  0  0  0  0  0  0  0  0
   -0.3762    1.9187    0.0000 H   0  0  0  0  0  0  0  0  0  0  0  0
   -1.0779    2.9613    0.0000 H   0  0  0  0  0  0  0  0  0  0  0  0
   -0.0001   -0.0000    0.0000 C   0  0  0  0  0  0  0  0  0  0  0  0
    0.9404    1.2944    0.0000 C   0  0  0  0  0  0  0  0  0  0  0  0
    0.7036    1.9328    0.0000 H   0  0  0  0  0  0  0  0  0  0  0  0
    0.1151    1.7998    0.0000 H   0  0  0  0  0  0  0  0  0  0  0  0
    2.5316    1.1272    0.0000 H   0  0  0  0  0  0  0  0  0  0  0  0
   -3.9036    1.9328    0.0000 H   0  0  0  0  0  0  0  0  0  0  0  0
   -8.0000    2.7713    0.0000 H   0  0  0  0  0  0  0  0  0  0  0  0
   -8.0000   -2.7713    0.0000 H   0  0  0  0  0  0  0  0  0  0  0  0
   -1.5999   -2.7713    0.0000 H   0  0  0  0  0  0  0  0  0  0  0  0
   -0.9117   -2.9818    0.0000 H   0  0  0  0  0  0  0  0  0  0  0  0
  1  2  1  0  0  0  0
  2  3  1  0  0  0  0
  3  4  1  0  0  0  0
  4  5  1  0  0  0  0
  3  6  1  0  0  0  0
  3  7  1  0  0  0  0
  2  8  2  0  0  0  0
  1  9  1  0  0  0  0
  9 10  1  0  0  0  0
 10 11  1  0  0  0  0
 11 12  1  0  0  0  0
 11 13  1  0  0  0  0
 11 14  1  0  0  0  0
 10 15  1  0  0  0  0
 15 16  1  0  0  0  0
 15 17  1  0  0  0  0
 15 18  1  0  0  0  0
 10 19  1  0  0  0  0
 19 20  1  0  0  0  0
 20  1  1  0  0  0  0
 20 21  1  0  0  0  0
 20 22  1  0  0  0  0
 22 23  1  0  0  0  0
 22 24  1  0  0  0  0
 22 25  1  0  0  0  0
 25 26  1  0  0  0  0
 26 27  1  0  0  0  0
 27 28  1  0  0  0  0
 27 29  1  0  0  0  0
 27 30  1  0  0  0  0
 30 31  1  0  0  0  0
 30 32  1  0  0  0  0
 30 33  1  0  0  0  0
 33 34  2  0  0  0  0
 34 35  1  0  0  0  0
 35 36  2  0  0  0  0
 35 37  1  0  0  0  0
 37 38  2  0  0  0  0
 38 39  1  0  0  0  0
 38 40  1  0  0  0  0
 40 33  1  0  0  0  0
 40 41  1  0  0  0  0
 41 42  1  0  0  0  0
 41 43  1  0  0  0  0
 41 44  1  0  0  0  0
 40 45  1  0  0  0  0
 45 26  1  0  0  0  0
 45 46  1  0  0  0  0
 45 47  1  0  0  0  0
 47 48  1  0  0  0  0
 48 49  1  0  0  0  0
 47 50  1  0  0  0  0
 50 51  1  0  0  0  0
 50 52  1  0  0  0  0
 50 53  1  0  0  0  0
 53  1  1  0  0  0  0
 53 25  1  0  0  0  0
 53 54  1  0  0  0  0
 54 55  1  0  0  0  0
 54 56  1  0  0  0  0
 54 57  1  0  0  0  0
 47 58  1  0  0  0  0
 37 59  1  0  0  0  0
 34 60  1  0  0  0  0
 26 61  1  0  0  0  0
 25 62  1  0  0  0  0
M  END
> <CAS>
76-25-5

> <NAME>
TRIAMCINOLONE ACETONIDE

> <preferred_name>
Triamcinolone acetonide

> <iupac>
(4aS,4bR,5S,6aS,6bS,9aR,10aS,10bS)-4b-fluoro-5-hydroxy-6b-(hydroxyacetyl)-4a,6a,8,8-tetramethyl-4a,4b,5,6,6a,6b,9a,10,10a,10b,11,12-dodecahydro-2H-naphtho[2',1':4,5]indeno[1,2-d][1,3]dioxol-2-one

> <SMILES>
CC1(C)O[C@@]2([C@@H](C[C@H]3[C@@H]4CCC5=CC(=O)C=C[C@]5(C)[C@@]4(F)[C@@H](O)C[C@]23C)O1)C(=O)CO

> <Canonical_QSARr>
CC1(C)OC2(C(CC3C4CCC5=CC(=O)C=CC5(C)C4(F)C(O)CC23C)O1)C(=O)CO

> <InChI_Code_QSARr>
InChI=1S/C24H31FO6/c1-20(2)30-19-10-16-15-6-5-13-9-14(27)7-8-21(13,3)23(15,25)17(28)11-22(16,4)24(19,31-20)18(29)12-26/h7-9,15-17,19,26,28H,5-6,10-12H2,1-4H3

> <InChI Key_QSARr>
YNDXUCZADRHECN-UHFFFAOYSA-N

> <Salt_Solvent>
?

> <WS Temperature>
28

> <WS Reference>
YALKOWSKY,SH & DANNENFELSER,RM (1992)

> <dsstox_substance_id>
DTXSID6021371

> <LogMolar>
-4.3158

$$$$
76-44-8
  -INDIGO-01081615412D

 22 24  0  0  0  0  0  0  0  0999 V2000
    1.5650    0.3327    0.0000 C   0  0  0  0  0  0  0  0  0  0  0  0
    1.7322    1.9239    0.0000 Cl  0  0  0  0  0  0  0  0  0  0  0  0
    0.0000    0.0000    0.0000 C   0  0  0  0  0  0  0  0  0  0  0  0
   -1.4616    0.6508    0.0000 C   0  0  0  0  0  0  0  0  0  0  0  0
   -0.9144    2.1543    0.0000 Cl  0  0  0  0  0  0  0  0  0  0  0  0
   -2.5323   -0.5382    0.0000 C   0  0  0  0  0  0  0  0  0  0  0  0
   -1.7323   -1.9239    0.0000 C   0  0  0  0  0  0  0  0  0  0  0  0
   -2.3830   -3.3856    0.0000 H   0  0  0  0  0  0  0  0  0  0  0  0
   -0.1672   -1.5913    0.0000 C   0  0  0  0  0  0  0  0  0  0  0  0
   -0.3344   -3.1825    0.0000 H   0  0  0  0  0  0  0  0  0  0  0  0
    1.2944   -2.2421    0.0000 C   0  0  0  0  0  0  0  0  0  0  0  0
    2.8595   -1.9094    0.0000 C   0  0  0  0  0  0  0  0  0  0  0  0
    4.0484   -2.9800    0.0000 Cl  0  0  0  0  0  0  0  0  0  0  0  0
    3.0268   -0.3181    0.0000 C   0  0  0  0  0  0  0  0  0  0  0  0
    4.4124    0.4819    0.0000 Cl  0  0  0  0  0  0  0  0  0  0  0  0
    1.1272   -3.8332    0.0000 Cl  0  0  0  0  0  0  0  0  0  0  0  0
    2.3651   -1.0530    0.0000 C   0  0  0  0  0  0  0  0  0  0  0  0
    3.7778   -1.8041    0.0000 Cl  0  0  0  0  0  0  0  0  0  0  0  0
    3.9031   -0.6119    0.0000 Cl  0  0  0  0  0  0  0  0  0  0  0  0
   -4.1235   -0.3710    0.0000 H   0  0  0  0  0  0  0  0  0  0  0  0
   -2.7562    1.5912    0.0000 H   0  0  0  0  0  0  0  0  0  0  0  0
    0.1673    1.5912    0.0000 H   0  0  0  0  0  0  0  0  0  0  0  0
  1  2  1  0  0  0  0
  1  3  1  0  0  0  0
  3  4  1  0  0  0  0
  4  5  1  0  0  0  0
  4  6  1  0  0  0  0
  6  7  2  0  0  0  0
  7  8  1  0  0  0  0
  7  9  1  0  0  0  0
  9  3  1  0  0  0  0
  9 10  1  0  0  0  0
  9 11  1  0  0  0  0
 11 12  1  0  0  0  0
 12 13  1  0  0  0  0
 12 14  2  0  0  0  0
 14  1  1  0  0  0  0
 14 15  1  0  0  0  0
 11 16  1  0  0  0  0
 11 17  1  0  0  0  0
 17  1  1  0  0  0  0
 17 18  1  0  0  0  0
 17 19  1  0  0  0  0
  6 20  1  0  0  0  0
  4 21  1  0  0  0  0
  3 22  1  0  0  0  0
M  END
> <CAS>
76-44-8

> <NAME>
HEPTACHLOR

> <preferred_name>
Heptachlor

> <iupac>
1,4,5,6,7,8,8-heptachloro-3a,4,7,7a-tetrahydro-1H-4,7-methanoindene

> <SMILES>
ClC1(Cl)C2(Cl)C3C=CC(Cl)C3C1(Cl)C(Cl)=C2Cl

> <Canonical_QSARr>
ClC1(Cl)C2(Cl)C3C=CC(Cl)C3C1(Cl)C(Cl)=C2Cl

> <InChI_Code_QSARr>
InChI=1S/C10H5Cl7/c11-4-2-1-3-5(4)9(15)7(13)6(12)8(3,14)10(9,16)17/h1-5H

> <InChI Key_QSARr>
FRCCEHPWNOQAEU-UHFFFAOYSA-N

> <Salt_Solvent>
?

> <WS Temperature>
25

> <WS Reference>
BIGGAR,JW & RIGGS,RI (1974)

> <dsstox_substance_id>
DTXSID3020679

> <LogMolar>
-6.3168

$$$$
76-76-6
  -INDIGO-01081615412D

 28 28  0  0  0  0  0  0  0  0999 V2000
    0.5222    2.9614    0.0000 O   0  0  0  0  0  0  0  0  0  0  0  0
    0.8000    1.3857    0.0000 C   0  0  0  0  0  0  0  0  0  0  0  0
    0.0001    0.0000    0.0000 C   0  0  0  0  0  0  0  0  0  0  0  0
   -1.2256    1.0284    0.0000 C   0  0  0  0  0  0  0  0  0  0  0  0
   -2.4513    2.0569    0.0000 C   0  0  0  0  0  0  0  0  0  0  0  0
   -3.6770    3.0853    0.0000 H   0  0  0  0  0  0  0  0  0  0  0  0
   -3.9549    1.5096    0.0000 H   0  0  0  0  0  0  0  0  0  0  0  0
   -2.1736    3.6326    0.0000 H   0  0  0  0  0  0  0  0  0  0  0  0
   -2.1856    0.5857    0.0000 H   0  0  0  0  0  0  0  0  0  0  0  0
   -0.1972    2.2541    0.0000 H   0  0  0  0  0  0  0  0  0  0  0  0
   -1.3857   -0.7999    0.0000 C   0  0  0  0  0  0  0  0  0  0  0  0
   -2.8891   -1.3472    0.0000 C   0  0  0  0  0  0  0  0  0  0  0  0
   -4.3927   -1.8945    0.0000 H   0  0  0  0  0  0  0  0  0  0  0  0
   -4.1148   -0.3187    0.0000 H   0  0  0  0  0  0  0  0  0  0  0  0
   -3.1670   -2.9229    0.0000 H   0  0  0  0  0  0  0  0  0  0  0  0
   -0.8385   -2.3035    0.0000 C   0  0  0  0  0  0  0  0  0  0  0  0
   -1.8668   -3.5292    0.0000 H   0  0  0  0  0  0  0  0  0  0  0  0
   -0.2911   -3.8070    0.0000 H   0  0  0  0  0  0  0  0  0  0  0  0
   -2.4384   -2.3035    0.0000 H   0  0  0  0  0  0  0  0  0  0  0  0
   -2.2541   -0.1973    0.0000 H   0  0  0  0  0  0  0  0  0  0  0  0
    0.8000   -1.3856    0.0000 C   0  0  0  0  0  0  0  0  0  0  0  0
    0.2528   -2.8892    0.0000 O   0  0  0  0  0  0  0  0  0  0  0  0
    2.4000   -1.3856    0.0000 N   0  0  0  0  0  0  0  0  0  0  0  0
    3.2001   -2.7712    0.0000 H   0  0  0  0  0  0  0  0  0  0  0  0
    3.2001    0.0000    0.0000 C   0  0  0  0  0  0  0  0  0  0  0  0
    4.8000    0.0000    0.0000 O   0  0  0  0  0  0  0  0  0  0  0  0
    2.4000    1.3857    0.0000 N   0  0  0  0  0  0  0  0  0  0  0  0
    3.1999    2.7713    0.0000 H   0  0  0  0  0  0  0  0  0  0  0  0
  1  2  2  0  0  0  0
  2  3  1  0  0  0  0
  3  4  1  0  0  0  0
  4  5  1  0  0  0  0
  5  6  1  0  0  0  0
  5  7  1  0  0  0  0
  5  8  1  0  0  0  0
  4  9  1  0  0  0  0
  4 10  1  0  0  0  0
  3 11  1  0  0  0  0
 11 12  1  0  0  0  0
 12 13  1  0  0  0  0
 12 14  1  0  0  0  0
 12 15  1  0  0  0  0
 11 16  1  0  0  0  0
 16 17  1  0  0  0  0
 16 18  1  0  0  0  0
 16 19  1  0  0  0  0
 11 20  1  0  0  0  0
  3 21  1  0  0  0  0
 21 22  2  0  0  0  0
 21 23  1  0  0  0  0
 23 24  1  0  0  0  0
 23 25  1  0  0  0  0
 25 26  2  0  0  0  0
 25 27  1  0  0  0  0
 27  2  1  0  0  0  0
 27 28  1  0  0  0  0
M  END
> <CAS>
76-76-6

> <NAME>
PROBARBITAL

> <preferred_name>
Probarbital

> <iupac>
5-ethyl-5-propan-2-yl-1,3-diazinane-2,4,6-trione

> <SMILES>
CCC1(C(C)C)C(=O)NC(=O)NC1=O

> <Canonical_QSARr>
CCC1(C(C)C)C(=O)NC(=O)NC1=O

> <InChI_Code_QSARr>
InChI=1S/C9H14N2O3/c1-4-9(5(2)3)6(12)10-8(14)11-7(9)13/h5H,4H2,1-3H3,(H2,10,11,12,13,14)

> <InChI Key_QSARr>
HHLXJTDUHFBYAU-UHFFFAOYSA-N

> <Salt_Solvent>
?

> <WS Temperature>
25

> <WS Reference>
YALKOWSKY,SH & DANNENFELSER,RM (1992)

> <dsstox_substance_id>
DTXSID30226897

> <LogMolar>
-2.2144

$$$$
76-94-8
  -INDIGO-01081615412D

 26 27  0  0  0  0  0  0  0  0999 V2000
    1.3856    2.4000    0.0000 O   0  0  0  0  0  0  0  0  0  0  0  0
    1.3856    0.8000    0.0000 C   0  0  0  0  0  0  0  0  0  0  0  0
   -0.0000   -0.0000    0.0000 C   0  0  0  0  0  0  0  0  0  0  0  0
   -0.5472    1.5035    0.0000 C   0  0  0  0  0  0  0  0  0  0  0  0
   -1.0945    3.0070    0.0000 H   0  0  0  0  0  0  0  0  0  0  0  0
    0.4812    2.7291    0.0000 H   0  0  0  0  0  0  0  0  0  0  0  0
   -2.1229    1.7814    0.0000 H   0  0  0  0  0  0  0  0  0  0  0  0
   -1.5757   -0.2778    0.0000 C   0  0  0  0  0  0  0  0  0  0  0  0
   -2.8014    0.7506    0.0000 C   0  0  0  0  0  0  0  0  0  0  0  0
   -3.0792    2.3264    0.0000 H   0  0  0  0  0  0  0  0  0  0  0  0
   -4.3049    0.2034    0.0000 C   0  0  0  0  0  0  0  0  0  0  0  0
   -5.5306    1.2318    0.0000 H   0  0  0  0  0  0  0  0  0  0  0  0
   -4.5828   -1.3723    0.0000 C   0  0  0  0  0  0  0  0  0  0  0  0
   -6.0862   -1.9195    0.0000 H   0  0  0  0  0  0  0  0  0  0  0  0
   -3.3571   -2.4008    0.0000 C   0  0  0  0  0  0  0  0  0  0  0  0
   -3.6348   -3.9765    0.0000 H   0  0  0  0  0  0  0  0  0  0  0  0
   -1.8536   -1.8536    0.0000 C   0  0  0  0  0  0  0  0  0  0  0  0
   -1.3856   -2.4000    0.0000 H   0  0  0  0  0  0  0  0  0  0  0  0
   -0.0000   -1.6000    0.0000 C   0  0  0  0  0  0  0  0  0  0  0  0
   -0.3164   -2.2461    0.0000 O   0  0  0  0  0  0  0  0  0  0  0  0
    1.3856   -2.4000    0.0000 N   0  0  0  0  0  0  0  0  0  0  0  0
    1.3857   -4.0000    0.0000 H   0  0  0  0  0  0  0  0  0  0  0  0
    2.7713   -1.6000    0.0000 C   0  0  0  0  0  0  0  0  0  0  0  0
    4.1569   -2.4000    0.0000 O   0  0  0  0  0  0  0  0  0  0  0  0
    2.7713   -0.0000    0.0000 N   0  0  0  0  0  0  0  0  0  0  0  0
    4.1569    0.8000    0.0000 H   0  0  0  0  0  0  0  0  0  0  0  0
  1  2  2  0  0  0  0
  2  3  1  0  0  0  0
  3  4  1  0  0  0  0
  4  5  1  0  0  0  0
  4  6  1  0  0  0  0
  4  7  1  0  0  0  0
  3  8  1  0  0  0  0
  8  9  4  0  0  0  0
  9 10  1  0  0  0  0
  9 11  4  0  0  0  0
 11 12  1  0  0  0  0
 11 13  4  0  0  0  0
 13 14  1  0  0  0  0
 13 15  4  0  0  0  0
 15 16  1  0  0  0  0
 15 17  4  0  0  0  0
 17  8  4  0  0  0  0
 17 18  1  0  0  0  0
  3 19  1  0  0  0  0
 19 20  2  0  0  0  0
 19 21  1  0  0  0  0
 21 22  1  0  0  0  0
 21 23  1  0  0  0  0
 23 24  2  0  0  0  0
 23 25  1  0  0  0  0
 25  2  1  0  0  0  0
 25 26  1  0  0  0  0
M  END
> <CAS>
76-94-8

> <NAME>
BARBITURIC ACID,5-ME-5-PHENYL-

> <preferred_name>
Phenylmethylbarbituric acid

> <iupac>
5-methyl-5-phenyl-1,3-diazinane-2,4,6-trione

> <SMILES>
CC1(c2ccccc2)C(=O)NC(=O)NC1=O

> <Canonical_QSARr>
CC1(c2ccccc2)C(=O)NC(=O)NC1=O

> <InChI_Code_QSARr>
InChI=1S/C11H10N2O3/c1-11(7-5-3-2-4-6-7)8(14)12-10(16)13-9(11)15/h2-6H,1H3,(H2,12,13,14,15,16)

> <InChI Key_QSARr>
LSAOZCAKUIANSQ-UHFFFAOYSA-N

> <Salt_Solvent>
?

> <WS Temperature>
20

> <WS Reference>
BEILSTEIN

> <dsstox_substance_id>
DTXSID00226900

> <LogMolar>
-2.4581

$$$$
77-21-4
  -INDIGO-01081615412D

 31 32  0  0  0  0  0  0  0  0999 V2000
   -2.7712    1.6000    0.0000 C   0  0  0  0  0  0  0  0  0  0  0  0
   -2.7712    0.0000    0.0000 N   0  0  0  0  0  0  0  0  0  0  0  0
   -4.1569   -0.8001    0.0000 H   0  0  0  0  0  0  0  0  0  0  0  0
   -1.3857   -0.8001    0.0000 C   0  0  0  0  0  0  0  0  0  0  0  0
   -1.8778   -1.5756    0.0000 O   0  0  0  0  0  0  0  0  0  0  0  0
   -0.0000    0.0000    0.0000 C   0  0  0  0  0  0  0  0  0  0  0  0
   -0.2779   -1.5756    0.0000 C   0  0  0  0  0  0  0  0  0  0  0  0
   -0.2779   -3.1757    0.0000 C   0  0  0  0  0  0  0  0  0  0  0  0
   -0.2779   -4.7757    0.0000 H   0  0  0  0  0  0  0  0  0  0  0  0
    1.1078   -3.9757    0.0000 H   0  0  0  0  0  0  0  0  0  0  0  0
   -1.6634   -3.9757    0.0000 H   0  0  0  0  0  0  0  0  0  0  0  0
    1.3222   -1.5756    0.0000 H   0  0  0  0  0  0  0  0  0  0  0  0
   -1.0149   -2.1241    0.0000 H   0  0  0  0  0  0  0  0  0  0  0  0
    1.6001    0.0000    0.0000 C   0  0  0  0  0  0  0  0  0  0  0  0
    2.4000    1.3857    0.0000 C   0  0  0  0  0  0  0  0  0  0  0  0
    1.8528    2.8892    0.0000 H   0  0  0  0  0  0  0  0  0  0  0  0
    3.9999    1.3857    0.0000 C   0  0  0  0  0  0  0  0  0  0  0  0
    4.8001    2.7712    0.0000 H   0  0  0  0  0  0  0  0  0  0  0  0
    4.8001    0.0000    0.0000 C   0  0  0  0  0  0  0  0  0  0  0  0
    6.4000    0.0000    0.0000 H   0  0  0  0  0  0  0  0  0  0  0  0
    3.9999   -1.3857    0.0000 C   0  0  0  0  0  0  0  0  0  0  0  0
    4.8001   -2.7713    0.0000 H   0  0  0  0  0  0  0  0  0  0  0  0
    2.4000   -1.3857    0.0000 C   0  0  0  0  0  0  0  0  0  0  0  0
    1.6001   -2.7713    0.0000 H   0  0  0  0  0  0  0  0  0  0  0  0
   -0.0000    1.6000    0.0000 C   0  0  0  0  0  0  0  0  0  0  0  0
    1.5757    1.8778    0.0000 H   0  0  0  0  0  0  0  0  0  0  0  0
    0.5472    3.1035    0.0000 H   0  0  0  0  0  0  0  0  0  0  0  0
   -1.3857    2.4000    0.0000 C   0  0  0  0  0  0  0  0  0  0  0  0
   -0.3572    3.6257    0.0000 H   0  0  0  0  0  0  0  0  0  0  0  0
   -2.4141    3.6257    0.0000 H   0  0  0  0  0  0  0  0  0  0  0  0
   -4.1569    2.4000    0.0000 O   0  0  0  0  0  0  0  0  0  0  0  0
  1  2  1  0  0  0  0
  2  3  1  0  0  0  0
  2  4  1  0  0  0  0
  4  5  2  0  0  0  0
  4  6  1  0  0  0  0
  6  7  1  0  0  0  0
  7  8  1  0  0  0  0
  8  9  1  0  0  0  0
  8 10  1  0  0  0  0
  8 11  1  0  0  0  0
  7 12  1  0  0  0  0
  7 13  1  0  0  0  0
  6 14  1  0  0  0  0
 14 15  4  0  0  0  0
 15 16  1  0  0  0  0
 15 17  4  0  0  0  0
 17 18  1  0  0  0  0
 17 19  4  0  0  0  0
 19 20  1  0  0  0  0
 19 21  4  0  0  0  0
 21 22  1  0  0  0  0
 21 23  4  0  0  0  0
 23 14  4  0  0  0  0
 23 24  1  0  0  0  0
  6 25  1  0  0  0  0
 25 26  1  0  0  0  0
 25 27  1  0  0  0  0
 25 28  1  0  0  0  0
 28  1  1  0  0  0  0
 28 29  1  0  0  0  0
 28 30  1  0  0  0  0
  1 31  2  0  0  0  0
M  END
> <CAS>
77-21-4

> <NAME>
2-ETHYL-2-PHENYLGLUTERIMIDE

> <preferred_name>
Glutethimide

> <iupac>
3-ethyl-3-phenylpiperidine-2,6-dione

> <SMILES>
CCC1(CCC(=O)NC1=O)c1ccccc1

> <Canonical_QSARr>
CCC1(CCC(=O)NC1=O)c1ccccc1

> <InChI_Code_QSARr>
InChI=1S/C13H15NO2/c1-2-13(10-6-4-3-5-7-10)9-8-11(15)14-12(13)16/h3-7H,2,8-9H2,1H3,(H,14,15,16)

> <InChI Key_QSARr>
JMBQKKAJIKAWKF-UHFFFAOYSA-N

> <Salt_Solvent>
?

> <WS Temperature>
30

> <WS Reference>
YALKOWSKY,SH & HE,Y (2003)

> <dsstox_substance_id>
DTXSID1023102

> <LogMolar>
-2.3374

$$$$
77-36-1
  -INDIGO-01081615412D

 33 35  0  0  0  0  0  0  0  0999 V2000
    2.5746    3.4706    0.0000 C   0  0  0  0  0  0  0  0  0  0  0  0
    1.1891    2.6707    0.0000 C   0  0  0  0  0  0  0  0  0  0  0  0
   -0.0367    3.6991    0.0000 H   0  0  0  0  0  0  0  0  0  0  0  0
    1.1891    1.0706    0.0000 C   0  0  0  0  0  0  0  0  0  0  0  0
   -0.0000    0.0000    0.0000 C   0  0  0  0  0  0  0  0  0  0  0  0
    0.6507   -1.4616    0.0000 N   0  0  0  0  0  0  0  0  0  0  0  0
    2.2419   -1.2944    0.0000 C   0  0  0  0  0  0  0  0  0  0  0  0
    3.3126   -2.4834    0.0000 O   0  0  0  0  0  0  0  0  0  0  0  0
    2.5746    0.2706    0.0000 C   0  0  0  0  0  0  0  0  0  0  0  0
    3.9603    1.0706    0.0000 C   0  0  0  0  0  0  0  0  0  0  0  0
    5.3460    0.2706    0.0000 H   0  0  0  0  0  0  0  0  0  0  0  0
    3.9603    2.6707    0.0000 C   0  0  0  0  0  0  0  0  0  0  0  0
    5.3460    3.4706    0.0000 H   0  0  0  0  0  0  0  0  0  0  0  0
    0.1036   -2.9651    0.0000 H   0  0  0  0  0  0  0  0  0  0  0  0
   -1.3857   -0.8000    0.0000 C   0  0  0  0  0  0  0  0  0  0  0  0
   -1.6635   -2.3757    0.0000 C   0  0  0  0  0  0  0  0  0  0  0  0
   -0.8635   -3.7614    0.0000 H   0  0  0  0  0  0  0  0  0  0  0  0
   -3.1671   -2.9229    0.0000 C   0  0  0  0  0  0  0  0  0  0  0  0
   -3.4449   -4.4986    0.0000 H   0  0  0  0  0  0  0  0  0  0  0  0
   -4.3927   -1.8944    0.0000 C   0  0  0  0  0  0  0  0  0  0  0  0
   -5.8961   -2.4417    0.0000 Cl  0  0  0  0  0  0  0  0  0  0  0  0
   -4.1149   -0.3187    0.0000 C   0  0  0  0  0  0  0  0  0  0  0  0
   -5.3405    0.7097    0.0000 S   0  0  0  0  0  0  0  0  0  0  0  0
   -6.3689   -0.5160    0.0000 O   0  0  0  0  0  0  0  0  0  0  0  0
   -4.3120    1.9353    0.0000 O   0  0  0  0  0  0  0  0  0  0  0  0
   -6.5661    1.7382    0.0000 N   0  0  0  0  0  0  0  0  0  0  0  0
   -8.0697    1.1909    0.0000 H   0  0  0  0  0  0  0  0  0  0  0  0
   -6.2883    3.3139    0.0000 H   0  0  0  0  0  0  0  0  0  0  0  0
   -2.6113    0.2284    0.0000 C   0  0  0  0  0  0  0  0  0  0  0  0
   -2.3335    1.8042    0.0000 H   0  0  0  0  0  0  0  0  0  0  0  0
   -0.9405    1.2945    0.0000 O   0  0  0  0  0  0  0  0  0  0  0  0
   -0.2897    2.7561    0.0000 H   0  0  0  0  0  0  0  0  0  0  0  0
    2.5746    5.0706    0.0000 H   0  0  0  0  0  0  0  0  0  0  0  0
  1  2  4  0  0  0  0
  2  3  1  0  0  0  0
  2  4  4  0  0  0  0
  4  5  1  0  0  0  0
  5  6  1  0  0  0  0
  6  7  1  0  0  0  0
  7  8  2  0  0  0  0
  7  9  1  0  0  0  0
  9  4  4  0  0  0  0
  9 10  4  0  0  0  0
 10 11  1  0  0  0  0
 10 12  4  0  0  0  0
 12  1  4  0  0  0  0
 12 13  1  0  0  0  0
  6 14  1  0  0  0  0
  5 15  1  0  0  0  0
 15 16  4  0  0  0  0
 16 17  1  0  0  0  0
 16 18  4  0  0  0  0
 18 19  1  0  0  0  0
 18 20  4  0  0  0  0
 20 21  1  0  0  0  0
 20 22  4  0  0  0  0
 22 23  1  0  0  0  0
 23 24  2  0  0  0  0
 23 25  2  0  0  0  0
 23 26  1  0  0  0  0
 26 27  1  0  0  0  0
 26 28  1  0  0  0  0
 22 29  4  0  0  0  0
 29 15  4  0  0  0  0
 29 30  1  0  0  0  0
  5 31  1  0  0  0  0
 31 32  1  0  0  0  0
  1 33  1  0  0  0  0
M  END
> <CAS>
77-36-1

> <NAME>
Chlorthalidone

> <preferred_name>
Chlorthalidone

> <iupac>
2-chloro-5-(1-hydroxy-3-oxo-2,3-dihydro-1H-isoindol-1-yl)benzenesulfonamide

> <SMILES>
NS(=O)(=O)c1cc(ccc1Cl)C1(O)NC(=O)c2ccccc12

> <Canonical_QSARr>
NS(=O)(=O)c1cc(ccc1Cl)C1(O)NC(=O)c2ccccc12

> <InChI_Code_QSARr>
InChI=1S/C14H11ClN2O4S/c15-11-6-5-8(7-12(11)22(16,20)21)14(19)10-4-2-1-3-9(10)13(18)17-14/h1-7,19H,(H,17,18)(H2,16,20,21)

> <InChI Key_QSARr>
JIVPVXMEBJLZRO-UHFFFAOYSA-N

> <Salt_Solvent>
?

> <WS Temperature>
20

> <WS Reference>
MERCK INDEX (1996)

> <dsstox_substance_id>
DTXSID4022812

> <LogMolar>
-3.4507

$$$$
77-81-6
  -INDIGO-01081615412D

 21 20  0  0  0  0  0  0  0  0999 V2000
    0.0001    0.0001    0.0000 P   0  0  0  0  0  0  0  0  0  0  0  0
   -1.3857    0.8000    0.0000 O   0  0  0  0  0  0  0  0  0  0  0  0
   -2.7713    0.0001    0.0000 C   0  0  0  0  0  0  0  0  0  0  0  0
   -4.1569   -0.8000    0.0000 C   0  0  0  0  0  0  0  0  0  0  0  0
   -5.5426   -1.6000    0.0000 H   0  0  0  0  0  0  0  0  0  0  0  0
   -5.5426   -0.0001    0.0000 H   0  0  0  0  0  0  0  0  0  0  0  0
   -4.1569   -2.4000    0.0000 H   0  0  0  0  0  0  0  0  0  0  0  0
   -3.5713    1.3856    0.0000 H   0  0  0  0  0  0  0  0  0  0  0  0
   -1.9712   -1.3856    0.0000 H   0  0  0  0  0  0  0  0  0  0  0  0
   -0.8000   -1.3856    0.0000 O   0  0  0  0  0  0  0  0  0  0  0  0
    1.3857   -0.8000    0.0000 N   0  0  0  0  0  0  0  0  0  0  0  0
    1.3857   -2.4000    0.0000 C   0  0  0  0  0  0  0  0  0  0  0  0
    1.3857   -4.0000    0.0000 H   0  0  0  0  0  0  0  0  0  0  0  0
    2.7713   -3.2000    0.0000 H   0  0  0  0  0  0  0  0  0  0  0  0
    0.0001   -3.2000    0.0000 H   0  0  0  0  0  0  0  0  0  0  0  0
    2.7713    0.0001    0.0000 C   0  0  0  0  0  0  0  0  0  0  0  0
    4.1569    0.8000    0.0000 H   0  0  0  0  0  0  0  0  0  0  0  0
    4.1569   -0.8000    0.0000 H   0  0  0  0  0  0  0  0  0  0  0  0
    2.7713    1.6000    0.0000 H   0  0  0  0  0  0  0  0  0  0  0  0
    0.8000    1.3856    0.0000 C   0  0  0  0  0  0  0  0  0  0  0  0
    1.6000    2.7713    0.0000 N   0  0  0  0  0  0  0  0  0  0  0  0
  1  2  1  0  0  0  0
  2  3  1  0  0  0  0
  3  4  1  0  0  0  0
  4  5  1  0  0  0  0
  4  6  1  0  0  0  0
  4  7  1  0  0  0  0
  3  8  1  0  0  0  0
  3  9  1  0  0  0  0
  1 10  2  0  0  0  0
  1 11  1  0  0  0  0
 11 12  1  0  0  0  0
 12 13  1  0  0  0  0
 12 14  1  0  0  0  0
 12 15  1  0  0  0  0
 11 16  1  0  0  0  0
 16 17  1  0  0  0  0
 16 18  1  0  0  0  0
 16 19  1  0  0  0  0
  1 20  1  0  0  0  0
 20 21  3  0  0  0  0
M  END
> <CAS>
77-81-6

> <NAME>
TABUN

> <preferred_name>


> <iupac>


> <SMILES>
CCOP(=O)(C#N)N(C)C

> <Canonical_QSARr>
CCOP(=O)(C#N)N(C)C

> <InChI_Code_QSARr>
InChI=1S/C5H11N2O2P/c1-4-9-10(8,5-6)7(2)3/h4H2,1-3H3

> <InChI Key_QSARr>
PJVJTCIRVMBVIA-UHFFFAOYSA-N

> <Salt_Solvent>
?

> <WS Temperature>
25

> <WS Reference>
OPRESKO,DM ET AL. (1998)

> <dsstox_substance_id>


> <LogMolar>
-0.2186

$$$$
78-40-0
  -INDIGO-01081615412D

 26 25  0  0  0  0  0  0  0  0999 V2000
    0.8000   -1.3856    0.0000 O   0  0  0  0  0  0  0  0  0  0  0  0
    0.0001    0.0000    0.0000 P   0  0  0  0  0  0  0  0  0  0  0  0
   -1.3856   -0.8000    0.0000 O   0  0  0  0  0  0  0  0  0  0  0  0
   -2.7712    0.0000    0.0000 C   0  0  0  0  0  0  0  0  0  0  0  0
   -4.1569    0.8001    0.0000 C   0  0  0  0  0  0  0  0  0  0  0  0
   -5.5426    1.5999    0.0000 H   0  0  0  0  0  0  0  0  0  0  0  0
   -5.5426    0.0000    0.0000 H   0  0  0  0  0  0  0  0  0  0  0  0
   -4.1569    2.4000    0.0000 H   0  0  0  0  0  0  0  0  0  0  0  0
   -3.5713   -1.3856    0.0000 H   0  0  0  0  0  0  0  0  0  0  0  0
   -1.9713    1.3857    0.0000 H   0  0  0  0  0  0  0  0  0  0  0  0
   -0.8000    1.3857    0.0000 O   0  0  0  0  0  0  0  0  0  0  0  0
    0.0001    2.7713    0.0000 C   0  0  0  0  0  0  0  0  0  0  0  0
    0.8000    4.1569    0.0000 C   0  0  0  0  0  0  0  0  0  0  0  0
    1.6001    5.5426    0.0000 H   0  0  0  0  0  0  0  0  0  0  0  0
    0.0001    5.5426    0.0000 H   0  0  0  0  0  0  0  0  0  0  0  0
    2.4000    4.1569    0.0000 H   0  0  0  0  0  0  0  0  0  0  0  0
   -1.3856    3.5713    0.0000 H   0  0  0  0  0  0  0  0  0  0  0  0
    1.3856    1.9713    0.0000 H   0  0  0  0  0  0  0  0  0  0  0  0
    1.3856    0.8001    0.0000 O   0  0  0  0  0  0  0  0  0  0  0  0
    2.7712    0.0000    0.0000 C   0  0  0  0  0  0  0  0  0  0  0  0
    4.1569   -0.8000    0.0000 C   0  0  0  0  0  0  0  0  0  0  0  0
    5.5426   -1.6000    0.0000 H   0  0  0  0  0  0  0  0  0  0  0  0
    5.5426    0.0000    0.0000 H   0  0  0  0  0  0  0  0  0  0  0  0
    4.1569   -2.4000    0.0000 H   0  0  0  0  0  0  0  0  0  0  0  0
    3.5713    1.3857    0.0000 H   0  0  0  0  0  0  0  0  0  0  0  0
    1.9713   -1.3856    0.0000 H   0  0  0  0  0  0  0  0  0  0  0  0
  1  2  2  0  0  0  0
  2  3  1  0  0  0  0
  3  4  1  0  0  0  0
  4  5  1  0  0  0  0
  5  6  1  0  0  0  0
  5  7  1  0  0  0  0
  5  8  1  0  0  0  0
  4  9  1  0  0  0  0
  4 10  1  0  0  0  0
  2 11  1  0  0  0  0
 11 12  1  0  0  0  0
 12 13  1  0  0  0  0
 13 14  1  0  0  0  0
 13 15  1  0  0  0  0
 13 16  1  0  0  0  0
 12 17  1  0  0  0  0
 12 18  1  0  0  0  0
  2 19  1  0  0  0  0
 19 20  1  0  0  0  0
 20 21  1  0  0  0  0
 21 22  1  0  0  0  0
 21 23  1  0  0  0  0
 21 24  1  0  0  0  0
 20 25  1  0  0  0  0
 20 26  1  0  0  0  0
M  END
> <CAS>
78-40-0

> <NAME>
TRIETHYL PHOSPHATE

> <preferred_name>
Triethyl phosphate

> <iupac>
triethyl phosphate

> <SMILES>
CCOP(=O)(OCC)OCC

> <Canonical_QSARr>
CCOP(=O)(OCC)OCC

> <InChI_Code_QSARr>
InChI=1S/C6H15O4P/c1-4-8-11(7,9-5-2)10-6-3/h4-6H2,1-3H3

> <InChI Key_QSARr>
DQWPFSLDHJDLRL-UHFFFAOYSA-N

> <Salt_Solvent>
?

> <WS Temperature>
25

> <WS Reference>
YALKOWSKY,SH & DANNENFELSER,RM (1992)

> <dsstox_substance_id>
DTXSID8026228

> <LogMolar>
0.4385

$$$$
78-51-3
  -INDIGO-01081615412D

 65 64  0  0  0  0  0  0  0  0999 V2000
    2.7712   -1.6001    0.0000 C   0  0  0  0  0  0  0  0  0  0  0  0
    1.3855   -0.8000    0.0000 C   0  0  0  0  0  0  0  0  0  0  0  0
    0.0002    0.0001    0.0000 C   0  0  0  0  0  0  0  0  0  0  0  0
   -1.3855    0.7999    0.0000 C   0  0  0  0  0  0  0  0  0  0  0  0
   -2.7712    1.6000    0.0000 O   0  0  0  0  0  0  0  0  0  0  0  0
   -4.1569    0.7999    0.0000 C   0  0  0  0  0  0  0  0  0  0  0  0
   -5.5426    0.0001    0.0000 C   0  0  0  0  0  0  0  0  0  0  0  0
   -6.9283   -0.8000    0.0000 O   0  0  0  0  0  0  0  0  0  0  0  0
   -8.3140    0.0001    0.0000 P   0  0  0  0  0  0  0  0  0  0  0  0
   -9.6994    0.7999    0.0000 O   0  0  0  0  0  0  0  0  0  0  0  0
  -11.0851    0.0001    0.0000 C   0  0  0  0  0  0  0  0  0  0  0  0
  -12.4708   -0.8000    0.0000 C   0  0  0  0  0  0  0  0  0  0  0  0
  -13.8565   -1.6001    0.0000 O   0  0  0  0  0  0  0  0  0  0  0  0
  -15.2422   -0.8000    0.0000 C   0  0  0  0  0  0  0  0  0  0  0  0
  -16.6279    0.0001    0.0000 C   0  0  0  0  0  0  0  0  0  0  0  0
  -18.0132    0.7999    0.0000 C   0  0  0  0  0  0  0  0  0  0  0  0
  -19.3989    1.6000    0.0000 C   0  0  0  0  0  0  0  0  0  0  0  0
  -20.7846    2.3999    0.0000 H   0  0  0  0  0  0  0  0  0  0  0  0
  -20.7846    0.7999    0.0000 H   0  0  0  0  0  0  0  0  0  0  0  0
  -19.3989    3.2000    0.0000 H   0  0  0  0  0  0  0  0  0  0  0  0
  -18.8132   -0.5858    0.0000 H   0  0  0  0  0  0  0  0  0  0  0  0
  -17.2132    2.1856    0.0000 H   0  0  0  0  0  0  0  0  0  0  0  0
  -17.4279   -1.3856    0.0000 H   0  0  0  0  0  0  0  0  0  0  0  0
  -15.8275    1.3855    0.0000 H   0  0  0  0  0  0  0  0  0  0  0  0
  -16.0422   -2.1857    0.0000 H   0  0  0  0  0  0  0  0  0  0  0  0
  -14.4422    0.5857    0.0000 H   0  0  0  0  0  0  0  0  0  0  0  0
  -13.2708    0.5857    0.0000 H   0  0  0  0  0  0  0  0  0  0  0  0
  -11.6708   -2.1857    0.0000 H   0  0  0  0  0  0  0  0  0  0  0  0
  -11.8850    1.3855    0.0000 H   0  0  0  0  0  0  0  0  0  0  0  0
  -10.2851   -1.3856    0.0000 H   0  0  0  0  0  0  0  0  0  0  0  0
   -9.1140   -1.3856    0.0000 O   0  0  0  0  0  0  0  0  0  0  0  0
   -8.3140   -2.7713    0.0000 C   0  0  0  0  0  0  0  0  0  0  0  0
   -7.5137   -4.1570    0.0000 C   0  0  0  0  0  0  0  0  0  0  0  0
   -6.7137   -5.5425    0.0000 O   0  0  0  0  0  0  0  0  0  0  0  0
   -7.5137   -6.9282    0.0000 C   0  0  0  0  0  0  0  0  0  0  0  0
   -8.3137   -8.3139    0.0000 C   0  0  0  0  0  0  0  0  0  0  0  0
   -9.1140   -9.6996    0.0000 C   0  0  0  0  0  0  0  0  0  0  0  0
   -9.9140  -11.0851    0.0000 C   0  0  0  0  0  0  0  0  0  0  0  0
  -10.7140  -12.4708    0.0000 H   0  0  0  0  0  0  0  0  0  0  0  0
   -9.1140  -12.4708    0.0000 H   0  0  0  0  0  0  0  0  0  0  0  0
  -11.5140  -11.0851    0.0000 H   0  0  0  0  0  0  0  0  0  0  0  0
   -7.7283  -10.4995    0.0000 H   0  0  0  0  0  0  0  0  0  0  0  0
  -10.4993   -8.8995    0.0000 H   0  0  0  0  0  0  0  0  0  0  0  0
   -6.9283   -9.1138    0.0000 H   0  0  0  0  0  0  0  0  0  0  0  0
   -9.6994   -7.5138    0.0000 H   0  0  0  0  0  0  0  0  0  0  0  0
   -6.1283   -7.7283    0.0000 H   0  0  0  0  0  0  0  0  0  0  0  0
   -8.8994   -6.1281    0.0000 H   0  0  0  0  0  0  0  0  0  0  0  0
   -8.8994   -4.9569    0.0000 H   0  0  0  0  0  0  0  0  0  0  0  0
   -6.1283   -3.3569    0.0000 H   0  0  0  0  0  0  0  0  0  0  0  0
   -9.6994   -3.5712    0.0000 H   0  0  0  0  0  0  0  0  0  0  0  0
   -6.9283   -1.9712    0.0000 H   0  0  0  0  0  0  0  0  0  0  0  0
   -7.5137    1.3855    0.0000 O   0  0  0  0  0  0  0  0  0  0  0  0
   -6.3426    1.3855    0.0000 H   0  0  0  0  0  0  0  0  0  0  0  0
   -4.7426   -1.3856    0.0000 H   0  0  0  0  0  0  0  0  0  0  0  0
   -4.9569    2.1856    0.0000 H   0  0  0  0  0  0  0  0  0  0  0  0
   -3.3569   -0.5855    0.0000 H   0  0  0  0  0  0  0  0  0  0  0  0
   -2.1855   -0.5855    0.0000 H   0  0  0  0  0  0  0  0  0  0  0  0
   -0.5855    2.1856    0.0000 H   0  0  0  0  0  0  0  0  0  0  0  0
    0.8002    1.3855    0.0000 H   0  0  0  0  0  0  0  0  0  0  0  0
   -0.8002   -1.3856    0.0000 H   0  0  0  0  0  0  0  0  0  0  0  0
    0.5855   -2.1857    0.0000 H   0  0  0  0  0  0  0  0  0  0  0  0
    2.1855    0.5857    0.0000 H   0  0  0  0  0  0  0  0  0  0  0  0
    4.1569   -2.4000    0.0000 H   0  0  0  0  0  0  0  0  0  0  0  0
    2.7712   -3.2001    0.0000 H   0  0  0  0  0  0  0  0  0  0  0  0
    4.1569   -0.8000    0.0000 H   0  0  0  0  0  0  0  0  0  0  0  0
  1  2  1  0  0  0  0
  2  3  1  0  0  0  0
  3  4  1  0  0  0  0
  4  5  1  0  0  0  0
  5  6  1  0  0  0  0
  6  7  1  0  0  0  0
  7  8  1  0  0  0  0
  8  9  1  0  0  0  0
  9 10  1  0  0  0  0
 10 11  1  0  0  0  0
 11 12  1  0  0  0  0
 12 13  1  0  0  0  0
 13 14  1  0  0  0  0
 14 15  1  0  0  0  0
 15 16  1  0  0  0  0
 16 17  1  0  0  0  0
 17 18  1  0  0  0  0
 17 19  1  0  0  0  0
 17 20  1  0  0  0  0
 16 21  1  0  0  0  0
 16 22  1  0  0  0  0
 15 23  1  0  0  0  0
 15 24  1  0  0  0  0
 14 25  1  0  0  0  0
 14 26  1  0  0  0  0
 12 27  1  0  0  0  0
 12 28  1  0  0  0  0
 11 29  1  0  0  0  0
 11 30  1  0  0  0  0
  9 31  1  0  0  0  0
 31 32  1  0  0  0  0
 32 33  1  0  0  0  0
 33 34  1  0  0  0  0
 34 35  1  0  0  0  0
 35 36  1  0  0  0  0
 36 37  1  0  0  0  0
 37 38  1  0  0  0  0
 38 39  1  0  0  0  0
 38 40  1  0  0  0  0
 38 41  1  0  0  0  0
 37 42  1  0  0  0  0
 37 43  1  0  0  0  0
 36 44  1  0  0  0  0
 36 45  1  0  0  0  0
 35 46  1  0  0  0  0
 35 47  1  0  0  0  0
 33 48  1  0  0  0  0
 33 49  1  0  0  0  0
 32 50  1  0  0  0  0
 32 51  1  0  0  0  0
  9 52  2  0  0  0  0
  7 53  1  0  0  0  0
  7 54  1  0  0  0  0
  6 55  1  0  0  0  0
  6 56  1  0  0  0  0
  4 57  1  0  0  0  0
  4 58  1  0  0  0  0
  3 59  1  0  0  0  0
  3 60  1  0  0  0  0
  2 61  1  0  0  0  0
  2 62  1  0  0  0  0
  1 63  1  0  0  0  0
  1 64  1  0  0  0  0
  1 65  1  0  0  0  0
M  END
> <CAS>
78-51-3

> <NAME>
TRI-2-BUTOXYETHYL PHOSPHATE

> <preferred_name>
Tris(2-butoxyethyl) phosphate

> <iupac>
tris(2-butoxyethyl) phosphate

> <SMILES>
CCCCOCCOP(=O)(OCCOCCCC)OCCOCCCC

> <Canonical_QSARr>
CCCCOCCOP(=O)(OCCOCCCC)OCCOCCCC

> <InChI_Code_QSARr>
InChI=1S/C18H39O7P/c1-4-7-10-20-13-16-23-26(19,24-17-14-21-11-8-5-2)25-18-15-22-12-9-6-3/h4-18H2,1-3H3

> <InChI Key_QSARr>
WTLBZVNBAKMVDP-UHFFFAOYSA-N

> <Salt_Solvent>
?

> <WS Temperature>
25

> <WS Reference>
BEILSTEIN

> <dsstox_substance_id>
DTXSID5021758

> <LogMolar>
-2.559

$$$$
78-70-6
  -INDIGO-01081615412D

 29 28  0  0  0  0  0  0  0  0999 V2000
    0.8000   -1.3857    0.0000 O   0  0  0  0  0  0  0  0  0  0  0  0
    0.0000   -0.0000    0.0000 C   0  0  0  0  0  0  0  0  0  0  0  0
   -1.3856   -0.8000    0.0000 C   0  0  0  0  0  0  0  0  0  0  0  0
   -2.7713   -1.6000    0.0000 H   0  0  0  0  0  0  0  0  0  0  0  0
   -1.3856   -2.4000    0.0000 H   0  0  0  0  0  0  0  0  0  0  0  0
   -2.7713   -0.0000    0.0000 H   0  0  0  0  0  0  0  0  0  0  0  0
    1.5036    0.5472    0.0000 C   0  0  0  0  0  0  0  0  0  0  0  0
    3.0071    1.0945    0.0000 C   0  0  0  0  0  0  0  0  0  0  0  0
    4.5105    1.6417    0.0000 C   0  0  0  0  0  0  0  0  0  0  0  0
    5.7361    0.6132    0.0000 C   0  0  0  0  0  0  0  0  0  0  0  0
    7.2397    1.1605    0.0000 C   0  0  0  0  0  0  0  0  0  0  0  0
    8.7432    1.7077    0.0000 H   0  0  0  0  0  0  0  0  0  0  0  0
    8.4653    0.1320    0.0000 H   0  0  0  0  0  0  0  0  0  0  0  0
    7.5176    2.7361    0.0000 H   0  0  0  0  0  0  0  0  0  0  0  0
    5.4584   -0.9625    0.0000 C   0  0  0  0  0  0  0  0  0  0  0  0
    6.6840   -1.9909    0.0000 H   0  0  0  0  0  0  0  0  0  0  0  0
    5.1805   -2.5381    0.0000 H   0  0  0  0  0  0  0  0  0  0  0  0
    6.9620   -0.4152    0.0000 H   0  0  0  0  0  0  0  0  0  0  0  0
    4.7884    3.2174    0.0000 H   0  0  0  0  0  0  0  0  0  0  0  0
    3.5543   -0.4090    0.0000 H   0  0  0  0  0  0  0  0  0  0  0  0
    2.4597    2.5979    0.0000 H   0  0  0  0  0  0  0  0  0  0  0  0
    2.0507   -0.9563    0.0000 H   0  0  0  0  0  0  0  0  0  0  0  0
    0.9562    2.0507    0.0000 H   0  0  0  0  0  0  0  0  0  0  0  0
   -0.8000    1.3857    0.0000 C   0  0  0  0  0  0  0  0  0  0  0  0
   -2.3035    1.9328    0.0000 C   0  0  0  0  0  0  0  0  0  0  0  0
   -3.5292    0.9044    0.0000 H   0  0  0  0  0  0  0  0  0  0  0  0
   -2.5814    3.5086    0.0000 H   0  0  0  0  0  0  0  0  0  0  0  0
   -0.2528    2.8892    0.0000 H   0  0  0  0  0  0  0  0  0  0  0  0
    0.0000   -2.7713    0.0000 H   0  0  0  0  0  0  0  0  0  0  0  0
  1  2  1  0  0  0  0
  2  3  1  0  0  0  0
  3  4  1  0  0  0  0
  3  5  1  0  0  0  0
  3  6  1  0  0  0  0
  2  7  1  0  0  0  0
  7  8  1  0  0  0  0
  8  9  1  0  0  0  0
  9 10  2  0  0  0  0
 10 11  1  0  0  0  0
 11 12  1  0  0  0  0
 11 13  1  0  0  0  0
 11 14  1  0  0  0  0
 10 15  1  0  0  0  0
 15 16  1  0  0  0  0
 15 17  1  0  0  0  0
 15 18  1  0  0  0  0
  9 19  1  0  0  0  0
  8 20  1  0  0  0  0
  8 21  1  0  0  0  0
  7 22  1  0  0  0  0
  7 23  1  0  0  0  0
  2 24  1  0  0  0  0
 24 25  2  0  0  0  0
 25 26  1  0  0  0  0
 25 27  1  0  0  0  0
 24 28  1  0  0  0  0
  1 29  1  0  0  0  0
M  END
> <CAS>
78-70-6

> <NAME>
LINALOOL

> <preferred_name>
Linalool

> <iupac>
3,7-dimethylocta-1,6-dien-3-ol

> <SMILES>
CC(C)=CCCC(C)(O)C=C

> <Canonical_QSARr>
CC(C)=CCCC(C)(O)C=C

> <InChI_Code_QSARr>
InChI=1S/C10H18O/c1-5-10(4,11)8-6-7-9(2)3/h5,7,11H,1,6,8H2,2-4H3

> <InChI Key_QSARr>
CDOSHBSSFJOMGT-UHFFFAOYSA-N

> <Salt_Solvent>
?

> <WS Temperature>
25

> <WS Reference>
YALKOWSKY,SH & DANNENFELSER,RM (1992)

> <dsstox_substance_id>
DTXSID7025502

> <LogMolar>
-1.9871

$$$$
78-78-4
  -INDIGO-01081615412D

 17 16  0  0  0  0  0  0  0  0999 V2000
   -0.0000    0.0000    0.0000 C   0  0  0  0  0  0  0  0  0  0  0  0
    1.5035    0.5472    0.0000 C   0  0  0  0  0  0  0  0  0  0  0  0
    3.0071    1.0945    0.0000 C   0  0  0  0  0  0  0  0  0  0  0  0
    4.5105    1.6417    0.0000 H   0  0  0  0  0  0  0  0  0  0  0  0
    4.2327    0.0660    0.0000 H   0  0  0  0  0  0  0  0  0  0  0  0
    3.2848    2.6701    0.0000 H   0  0  0  0  0  0  0  0  0  0  0  0
    2.0507   -0.9563    0.0000 H   0  0  0  0  0  0  0  0  0  0  0  0
    1.2257    2.1229    0.0000 H   0  0  0  0  0  0  0  0  0  0  0  0
   -1.3856   -0.8000    0.0000 C   0  0  0  0  0  0  0  0  0  0  0  0
   -2.7713   -1.6000    0.0000 H   0  0  0  0  0  0  0  0  0  0  0  0
   -1.3856   -2.4000    0.0000 H   0  0  0  0  0  0  0  0  0  0  0  0
   -2.7713    0.0000    0.0000 H   0  0  0  0  0  0  0  0  0  0  0  0
   -0.8000    1.3856    0.0000 C   0  0  0  0  0  0  0  0  0  0  0  0
   -1.6000    2.7713    0.0000 H   0  0  0  0  0  0  0  0  0  0  0  0
   -2.4001    1.3856    0.0000 H   0  0  0  0  0  0  0  0  0  0  0  0
   -0.0000    2.7713    0.0000 H   0  0  0  0  0  0  0  0  0  0  0  0
    0.8000   -1.3856    0.0000 H   0  0  0  0  0  0  0  0  0  0  0  0
  1  2  1  0  0  0  0
  2  3  1  0  0  0  0
  3  4  1  0  0  0  0
  3  5  1  0  0  0  0
  3  6  1  0  0  0  0
  2  7  1  0  0  0  0
  2  8  1  0  0  0  0
  1  9  1  0  0  0  0
  9 10  1  0  0  0  0
  9 11  1  0  0  0  0
  9 12  1  0  0  0  0
  1 13  1  0  0  0  0
 13 14  1  0  0  0  0
 13 15  1  0  0  0  0
 13 16  1  0  0  0  0
  1 17  1  0  0  0  0
M  END
> <CAS>
78-78-4

> <NAME>
ISOPENTANE

> <preferred_name>
2-Methylbutane

> <iupac>
2-methylbutane

> <SMILES>
CCC(C)C

> <Canonical_QSARr>
CCC(C)C

> <InChI_Code_QSARr>
InChI=1S/C5H12/c1-4-5(2)3/h5H,4H2,1-3H3

> <InChI Key_QSARr>
QWTDNUCVQCZILF-UHFFFAOYSA-N

> <Salt_Solvent>
?

> <WS Temperature>
25

> <WS Reference>
RIDDICK,JA ET AL. (1986)

> <dsstox_substance_id>
DTXSID8025468

> <LogMolar>
-3.17

$$$$
78-84-2
  -INDIGO-01081615412D

 13 12  0  0  0  0  0  0  0  0999 V2000
    1.6000    0.0000    0.0000 C   0  0  0  0  0  0  0  0  0  0  0  0
    0.0000    0.0000    0.0000 C   0  0  0  0  0  0  0  0  0  0  0  0
    0.0000    1.6000    0.0000 C   0  0  0  0  0  0  0  0  0  0  0  0
    1.3856    2.4000    0.0000 O   0  0  0  0  0  0  0  0  0  0  0  0
   -1.3856    2.4000    0.0000 H   0  0  0  0  0  0  0  0  0  0  0  0
   -1.6000    0.0000    0.0000 C   0  0  0  0  0  0  0  0  0  0  0  0
   -3.2000    0.0000    0.0000 H   0  0  0  0  0  0  0  0  0  0  0  0
   -2.4000   -1.3856    0.0000 H   0  0  0  0  0  0  0  0  0  0  0  0
   -2.4000    1.3856    0.0000 H   0  0  0  0  0  0  0  0  0  0  0  0
    0.0000   -1.6000    0.0000 H   0  0  0  0  0  0  0  0  0  0  0  0
    3.2000    0.0000    0.0000 H   0  0  0  0  0  0  0  0  0  0  0  0
    2.4000   -1.3856    0.0000 H   0  0  0  0  0  0  0  0  0  0  0  0
    2.4000    1.3856    0.0000 H   0  0  0  0  0  0  0  0  0  0  0  0
  1  2  1  0  0  0  0
  2  3  1  0  0  0  0
  3  4  2  0  0  0  0
  3  5  1  0  0  0  0
  2  6  1  0  0  0  0
  6  7  1  0  0  0  0
  6  8  1  0  0  0  0
  6  9  1  0  0  0  0
  2 10  1  0  0  0  0
  1 11  1  0  0  0  0
  1 12  1  0  0  0  0
  1 13  1  0  0  0  0
M  END
> <CAS>
78-84-2

> <NAME>
ISOBUTYRALDEHYDE

> <preferred_name>
2-Methylpropanal

> <iupac>
2-methylpropanal

> <SMILES>
CC(C)C=O

> <Canonical_QSARr>
CC(C)C=O

> <InChI_Code_QSARr>
InChI=1S/C4H8O/c1-4(2)3-5/h3-4H,1-2H3

> <InChI Key_QSARr>
AMIMRNSIRUDHCM-UHFFFAOYSA-N

> <Salt_Solvent>
?

> <WS Temperature>
25

> <WS Reference>
YALKOWSKY,SH & DANNENFELSER,RM (1992)

> <dsstox_substance_id>
DTXSID9021635

> <LogMolar>
0.0914

$$$$
78-88-6
  -INDIGO-01081615412D

  9  8  0  0  0  0  0  0  0  0999 V2000
    1.3857   -0.8000    0.0000 C   0  0  0  0  0  0  0  0  0  0  0  0
    0.0000    0.0000    0.0000 C   0  0  0  0  0  0  0  0  0  0  0  0
   -1.3856    0.8000    0.0000 Cl  0  0  0  0  0  0  0  0  0  0  0  0
    0.0000    1.6000    0.0000 H   0  0  0  0  0  0  0  0  0  0  0  0
   -1.3856   -0.8000    0.0000 H   0  0  0  0  0  0  0  0  0  0  0  0
    1.3856   -2.4000    0.0000 Cl  0  0  0  0  0  0  0  0  0  0  0  0
    2.7713    0.0000    0.0000 C   0  0  0  0  0  0  0  0  0  0  0  0
    4.1569   -0.8000    0.0000 H   0  0  0  0  0  0  0  0  0  0  0  0
    2.7713    1.6000    0.0000 H   0  0  0  0  0  0  0  0  0  0  0  0
  1  2  1  0  0  0  0
  2  3  1  0  0  0  0
  2  4  1  0  0  0  0
  2  5  1  0  0  0  0
  1  6  1  0  0  0  0
  1  7  2  0  0  0  0
  7  8  1  0  0  0  0
  7  9  1  0  0  0  0
M  END
> <CAS>
78-88-6

> <NAME>
2,3-DICHLOROPROPENE

> <preferred_name>
2,3-Dichloro-1-propene

> <iupac>
2,3-dichloroprop-1-ene

> <SMILES>
C=C(Cl)CCl

> <Canonical_QSARr>
C=C(Cl)CCl

> <InChI_Code_QSARr>
InChI=1S/C3H4Cl2/c1-3(5)2-4/h1-2H2

> <InChI Key_QSARr>
FALCMQXTWHPRIH-UHFFFAOYSA-N

> <Salt_Solvent>
?

> <WS Temperature>
25

> <WS Reference>
MACKAY,D & SHIU,WY (1981)

> <dsstox_substance_id>
DTXSID6025012

> <LogMolar>
-1.7128

$$$$
78-96-6
  -INDIGO-01081615412D

 14 13  0  0  0  0  0  0  0  0999 V2000
    0.0000    1.6000    0.0000 O   0  0  0  0  0  0  0  0  0  0  0  0
    0.0000    0.0000    0.0000 C   0  0  0  0  0  0  0  0  0  0  0  0
    1.6000    0.0000    0.0000 C   0  0  0  0  0  0  0  0  0  0  0  0
    3.2000    0.0000    0.0000 N   0  0  0  0  0  0  0  0  0  0  0  0
    4.0000   -1.3856    0.0000 H   0  0  0  0  0  0  0  0  0  0  0  0
    4.0000    1.3856    0.0000 H   0  0  0  0  0  0  0  0  0  0  0  0
    1.6000   -1.6000    0.0000 H   0  0  0  0  0  0  0  0  0  0  0  0
    1.6000    1.6000    0.0000 H   0  0  0  0  0  0  0  0  0  0  0  0
   -1.6000    0.0000    0.0000 C   0  0  0  0  0  0  0  0  0  0  0  0
   -3.2000    0.0000    0.0000 H   0  0  0  0  0  0  0  0  0  0  0  0
   -2.4000   -1.3856    0.0000 H   0  0  0  0  0  0  0  0  0  0  0  0
   -2.4000    1.3856    0.0000 H   0  0  0  0  0  0  0  0  0  0  0  0
    0.0000   -1.6000    0.0000 H   0  0  0  0  0  0  0  0  0  0  0  0
   -1.3857    2.4000    0.0000 H   0  0  0  0  0  0  0  0  0  0  0  0
  1  2  1  0  0  0  0
  2  3  1  0  0  0  0
  3  4  1  0  0  0  0
  4  5  1  0  0  0  0
  4  6  1  0  0  0  0
  3  7  1  0  0  0  0
  3  8  1  0  0  0  0
  2  9  1  0  0  0  0
  9 10  1  0  0  0  0
  9 11  1  0  0  0  0
  9 12  1  0  0  0  0
  2 13  1  0  0  0  0
  1 14  1  0  0  0  0
M  END
> <CAS>
78-96-6

> <NAME>
1-AMINO-2-PROPANOL

> <preferred_name>
1-Amino-2-propanol

> <iupac>
1-aminopropan-2-ol

> <SMILES>
CC(O)CN

> <Canonical_QSARr>
CC(O)CN

> <InChI_Code_QSARr>
InChI=1S/C3H9NO/c1-3(5)2-4/h3,5H,2,4H2,1H3

> <InChI Key_QSARr>
HXKKHQJGJAFBHI-UHFFFAOYSA-N

> <Salt_Solvent>
?

> <WS Temperature>


> <WS Reference>
KIRK-OTHMER; 4th ed, 2:3 (1992)

> <dsstox_substance_id>
DTXSID9021764

> <LogMolar>
1.1243

$$$$
79-06-1
  -INDIGO-01081615412D

 10  9  0  0  0  0  0  0  0  0999 V2000
   -1.3856   -0.8000    0.0000 N   0  0  0  0  0  0  0  0  0  0  0  0
    0.0000    0.0000    0.0000 C   0  0  0  0  0  0  0  0  0  0  0  0
    1.3856   -0.8000    0.0000 C   0  0  0  0  0  0  0  0  0  0  0  0
    2.7713    0.0000    0.0000 C   0  0  0  0  0  0  0  0  0  0  0  0
    4.1569   -0.8000    0.0000 H   0  0  0  0  0  0  0  0  0  0  0  0
    2.7713    1.6000    0.0000 H   0  0  0  0  0  0  0  0  0  0  0  0
    1.3856   -2.4000    0.0000 H   0  0  0  0  0  0  0  0  0  0  0  0
    0.0000    1.6000    0.0000 O   0  0  0  0  0  0  0  0  0  0  0  0
   -2.7713    0.0000    0.0000 H   0  0  0  0  0  0  0  0  0  0  0  0
   -1.3856   -2.4000    0.0000 H   0  0  0  0  0  0  0  0  0  0  0  0
  1  2  1  0  0  0  0
  2  3  1  0  0  0  0
  3  4  2  0  0  0  0
  4  5  1  0  0  0  0
  4  6  1  0  0  0  0
  3  7  1  0  0  0  0
  2  8  2  0  0  0  0
  1  9  1  0  0  0  0
  1 10  1  0  0  0  0
M  END
> <CAS>
79-06-1

> <NAME>
ACRYLAMIDE

> <preferred_name>
Acrylamide

> <iupac>
prop-2-enamide

> <SMILES>
C=CC(N)=O

> <Canonical_QSARr>
C=CC(N)=O

> <InChI_Code_QSARr>
InChI=1S/C3H5NO/c1-2-3(4)5/h2H,1H2,(H2,4,5)

> <InChI Key_QSARr>
HRPVXLWXLXDGHG-UHFFFAOYSA-N

> <Salt_Solvent>
?

> <WS Temperature>
25

> <WS Reference>
YALKOWSKY,SH & DANNENFELSER,RM (1992)

> <dsstox_substance_id>
DTXSID5020027

> <LogMolar>
0.9544

$$$$
79-10-7
  -INDIGO-01081615412D

  9  8  0  0  0  0  0  0  0  0999 V2000
    2.7713    0.0000    0.0000 O   0  0  0  0  0  0  0  0  0  0  0  0
    1.3856    0.8000    0.0000 C   0  0  0  0  0  0  0  0  0  0  0  0
    0.0000    0.0000    0.0000 C   0  0  0  0  0  0  0  0  0  0  0  0
   -1.3856    0.8000    0.0000 C   0  0  0  0  0  0  0  0  0  0  0  0
   -2.7713    0.0000    0.0000 H   0  0  0  0  0  0  0  0  0  0  0  0
   -1.3856    2.4000    0.0000 H   0  0  0  0  0  0  0  0  0  0  0  0
    0.0000   -1.6000    0.0000 H   0  0  0  0  0  0  0  0  0  0  0  0
    1.3856    2.4000    0.0000 O   0  0  0  0  0  0  0  0  0  0  0  0
    4.1569    0.8000    0.0000 H   0  0  0  0  0  0  0  0  0  0  0  0
  1  2  1  0  0  0  0
  2  3  1  0  0  0  0
  3  4  2  0  0  0  0
  4  5  1  0  0  0  0
  4  6  1  0  0  0  0
  3  7  1  0  0  0  0
  2  8  2  0  0  0  0
  1  9  1  0  0  0  0
M  END
> <CAS>
79-10-7

> <NAME>
ACRYLIC ACID

> <preferred_name>
Acrylic acid

> <iupac>
prop-2-enoic acid

> <SMILES>
C=CC(O)=O

> <Canonical_QSARr>
C=CC(O)=O

> <InChI_Code_QSARr>
InChI=1S/C3H4O2/c1-2-3(4)5/h2H,1H2,(H,4,5)

> <InChI Key_QSARr>
NIXOWILDQLNWCW-UHFFFAOYSA-N

> <Salt_Solvent>
?

> <WS Temperature>


> <WS Reference>
RIDDICK,JA ET AL. (1986)

> <dsstox_substance_id>
DTXSID0039229

> <LogMolar>
1.1423

$$$$
79-20-9
  -INDIGO-01081615412D

 11 10  0  0  0  0  0  0  0  0999 V2000
   -0.0000    0.0000    0.0000 C   0  0  0  0  0  0  0  0  0  0  0  0
    1.3856   -0.8000    0.0000 C   0  0  0  0  0  0  0  0  0  0  0  0
    2.7713    0.0000    0.0000 O   0  0  0  0  0  0  0  0  0  0  0  0
    4.1569   -0.8000    0.0000 C   0  0  0  0  0  0  0  0  0  0  0  0
    5.5426   -1.6000    0.0000 H   0  0  0  0  0  0  0  0  0  0  0  0
    5.5426    0.0000    0.0000 H   0  0  0  0  0  0  0  0  0  0  0  0
    4.1569   -2.4000    0.0000 H   0  0  0  0  0  0  0  0  0  0  0  0
    1.3856   -2.4000    0.0000 O   0  0  0  0  0  0  0  0  0  0  0  0
   -1.3856    0.8000    0.0000 H   0  0  0  0  0  0  0  0  0  0  0  0
   -0.0000    1.6000    0.0000 H   0  0  0  0  0  0  0  0  0  0  0  0
   -1.3856   -0.8000    0.0000 H   0  0  0  0  0  0  0  0  0  0  0  0
  1  2  1  0  0  0  0
  2  3  1  0  0  0  0
  3  4  1  0  0  0  0
  4  5  1  0  0  0  0
  4  6  1  0  0  0  0
  4  7  1  0  0  0  0
  2  8  2  0  0  0  0
  1  9  1  0  0  0  0
  1 10  1  0  0  0  0
  1 11  1  0  0  0  0
M  END
> <CAS>
79-20-9

> <NAME>
METHYL ACETATE

> <preferred_name>
Methyl acetate

> <iupac>
methyl acetate

> <SMILES>
COC(C)=O

> <Canonical_QSARr>
COC(C)=O

> <InChI_Code_QSARr>
InChI=1S/C3H6O2/c1-3(4)5-2/h1-2H3

> <InChI Key_QSARr>
KXKVLQRXCPHEJC-UHFFFAOYSA-N

> <Salt_Solvent>
?

> <WS Temperature>
20

> <WS Reference>
STEPHEN,H & STEPHEN,T (1963)

> <dsstox_substance_id>
DTXSID4021767

> <LogMolar>
0.5159

$$$$
79-29-8
  -INDIGO-01081615412D

 20 19  0  0  0  0  0  0  0  0999 V2000
   -0.0000    0.0000    0.0000 C   0  0  0  0  0  0  0  0  0  0  0  0
   -1.3857   -0.8000    0.0000 C   0  0  0  0  0  0  0  0  0  0  0  0
   -2.7713   -1.6000    0.0000 H   0  0  0  0  0  0  0  0  0  0  0  0
   -1.3857   -2.4000    0.0000 H   0  0  0  0  0  0  0  0  0  0  0  0
   -2.7713    0.0000    0.0000 H   0  0  0  0  0  0  0  0  0  0  0  0
   -0.8000    1.3857    0.0000 C   0  0  0  0  0  0  0  0  0  0  0  0
   -1.6000    2.7713    0.0000 H   0  0  0  0  0  0  0  0  0  0  0  0
   -2.4000    1.3857    0.0000 H   0  0  0  0  0  0  0  0  0  0  0  0
   -0.0000    2.7713    0.0000 H   0  0  0  0  0  0  0  0  0  0  0  0
    1.5757    0.2778    0.0000 C   0  0  0  0  0  0  0  0  0  0  0  0
    3.0793    0.8251    0.0000 C   0  0  0  0  0  0  0  0  0  0  0  0
    4.5827    1.3723    0.0000 H   0  0  0  0  0  0  0  0  0  0  0  0
    4.3049   -0.2034    0.0000 H   0  0  0  0  0  0  0  0  0  0  0  0
    3.3570    2.4007    0.0000 H   0  0  0  0  0  0  0  0  0  0  0  0
    2.1230   -1.2257    0.0000 C   0  0  0  0  0  0  0  0  0  0  0  0
    2.6701   -2.7292    0.0000 H   0  0  0  0  0  0  0  0  0  0  0  0
    3.6986   -1.5035    0.0000 H   0  0  0  0  0  0  0  0  0  0  0  0
    1.0945   -2.4514    0.0000 H   0  0  0  0  0  0  0  0  0  0  0  0
    1.0284    1.7813    0.0000 H   0  0  0  0  0  0  0  0  0  0  0  0
    0.8000   -1.3856    0.0000 H   0  0  0  0  0  0  0  0  0  0  0  0
  1  2  1  0  0  0  0
  2  3  1  0  0  0  0
  2  4  1  0  0  0  0
  2  5  1  0  0  0  0
  1  6  1  0  0  0  0
  6  7  1  0  0  0  0
  6  8  1  0  0  0  0
  6  9  1  0  0  0  0
  1 10  1  0  0  0  0
 10 11  1  0  0  0  0
 11 12  1  0  0  0  0
 11 13  1  0  0  0  0
 11 14  1  0  0  0  0
 10 15  1  0  0  0  0
 15 16  1  0  0  0  0
 15 17  1  0  0  0  0
 15 18  1  0  0  0  0
 10 19  1  0  0  0  0
  1 20  1  0  0  0  0
M  END
> <CAS>
79-29-8

> <NAME>
2,3-DIMETHYLBUTANE

> <preferred_name>
2,3-Dimethylbutane

> <iupac>
2,3-dimethylbutane

> <SMILES>
CC(C)C(C)C

> <Canonical_QSARr>
CC(C)C(C)C

> <InChI_Code_QSARr>
InChI=1S/C6H14/c1-5(2)6(3)4/h5-6H,1-4H3

> <InChI Key_QSARr>
ZFFMLCVRJBZUDZ-UHFFFAOYSA-N

> <Salt_Solvent>
?

> <WS Temperature>
25

> <WS Reference>
YALKOWSKY,SH & DANNENFELSER,RM (1992)

> <dsstox_substance_id>
DTXSID9025112

> <LogMolar>
-3.5832

$$$$
79-43-6
  -INDIGO-01081615412D

  8  7  0  0  0  0  0  0  0  0999 V2000
    2.4000    1.3856    0.0000 O   0  0  0  0  0  0  0  0  0  0  0  0
    1.6000    0.0000    0.0000 C   0  0  0  0  0  0  0  0  0  0  0  0
   -0.0000    0.0000    0.0000 C   0  0  0  0  0  0  0  0  0  0  0  0
   -1.6000   -0.0000    0.0000 Cl  0  0  0  0  0  0  0  0  0  0  0  0
   -0.8000    1.3856    0.0000 Cl  0  0  0  0  0  0  0  0  0  0  0  0
   -0.8000   -1.3856    0.0000 H   0  0  0  0  0  0  0  0  0  0  0  0
    2.4000   -1.3856    0.0000 O   0  0  0  0  0  0  0  0  0  0  0  0
    4.0000    1.3856    0.0000 H   0  0  0  0  0  0  0  0  0  0  0  0
  1  2  1  0  0  0  0
  2  3  1  0  0  0  0
  3  4  1  0  0  0  0
  3  5  1  0  0  0  0
  3  6  1  0  0  0  0
  2  7  2  0  0  0  0
  1  8  1  0  0  0  0
M  END
> <CAS>
79-43-6

> <NAME>
DICHLOROACETIC ACID

> <preferred_name>
Dichloroacetic acid

> <iupac>
dichloroacetic acid

> <SMILES>
OC(=O)C(Cl)Cl

> <Canonical_QSARr>
OC(=O)C(Cl)Cl

> <InChI_Code_QSARr>
InChI=1S/C2H2Cl2O2/c3-1(4)2(5)6/h1H,(H,5,6)

> <InChI Key_QSARr>
JXTHNDFMNIQAHM-UHFFFAOYSA-N

> <Salt_Solvent>
?

> <WS Temperature>
20

> <WS Reference>
YALKOWSKY,SH & DANNENFELSER,RM (1992)

> <dsstox_substance_id>
DTXSID2020428

> <LogMolar>
0.8896

$$$$
79-92-5
  -INDIGO-01081615412D

 26 27  0  0  0  0  0  0  0  0999 V2000
    1.1108   -2.3805    0.0000 C   0  0  0  0  0  0  0  0  0  0  0  0
    0.3466   -1.1466    0.0000 C   0  0  0  0  0  0  0  0  0  0  0  0
   -1.2301   -0.8745    0.0000 C   0  0  0  0  0  0  0  0  0  0  0  0
   -2.7904   -1.2291    0.0000 C   0  0  0  0  0  0  0  0  0  0  0  0
   -3.2634   -2.7576    0.0000 H   0  0  0  0  0  0  0  0  0  0  0  0
   -3.8776   -0.0553    0.0000 H   0  0  0  0  0  0  0  0  0  0  0  0
   -0.0000    0.0000    0.0000 C   0  0  0  0  0  0  0  0  0  0  0  0
    0.5378    1.5069    0.0000 C   0  0  0  0  0  0  0  0  0  0  0  0
   -0.4984    2.7261    0.0000 H   0  0  0  0  0  0  0  0  0  0  0  0
    0.8057    3.0843    0.0000 H   0  0  0  0  0  0  0  0  0  0  0  0
    0.9753    2.0128    0.0000 H   0  0  0  0  0  0  0  0  0  0  0  0
   -1.2758    0.9655    0.0000 C   0  0  0  0  0  0  0  0  0  0  0  0
   -2.5517    1.9310    0.0000 H   0  0  0  0  0  0  0  0  0  0  0  0
   -2.7499    0.3434    0.0000 H   0  0  0  0  0  0  0  0  0  0  0  0
   -1.3564    2.5635    0.0000 H   0  0  0  0  0  0  0  0  0  0  0  0
    1.7072   -0.0645    0.0000 C   0  0  0  0  0  0  0  0  0  0  0  0
    2.1205    1.3999    0.0000 C   0  0  0  0  0  0  0  0  0  0  0  0
    3.7053    1.6190    0.0000 H   0  0  0  0  0  0  0  0  0  0  0  0
    2.0378    2.0636    0.0000 H   0  0  0  0  0  0  0  0  0  0  0  0
    3.2968    0.1174    0.0000 H   0  0  0  0  0  0  0  0  0  0  0  0
    2.4829   -1.4746    0.0000 C   0  0  0  0  0  0  0  0  0  0  0  0
    3.3282   -2.8330    0.0000 H   0  0  0  0  0  0  0  0  0  0  0  0
    3.8635   -0.6660    0.0000 H   0  0  0  0  0  0  0  0  0  0  0  0
   -0.5484   -2.4729    0.0000 H   0  0  0  0  0  0  0  0  0  0  0  0
   -0.2412   -3.2361    0.0000 H   0  0  0  0  0  0  0  0  0  0  0  0
    1.9794   -3.7242    0.0000 H   0  0  0  0  0  0  0  0  0  0  0  0
  1  2  1  0  0  0  0
  2  3  1  0  0  0  0
  3  4  2  0  0  0  0
  4  5  1  0  0  0  0
  4  6  1  0  0  0  0
  3  7  1  0  0  0  0
  7  8  1  0  0  0  0
  8  9  1  0  0  0  0
  8 10  1  0  0  0  0
  8 11  1  0  0  0  0
  7 12  1  0  0  0  0
 12 13  1  0  0  0  0
 12 14  1  0  0  0  0
 12 15  1  0  0  0  0
  7 16  1  0  0  0  0
 16 17  1  0  0  0  0
 17  2  1  0  0  0  0
 17 18  1  0  0  0  0
 17 19  1  0  0  0  0
 16 20  1  0  0  0  0
 16 21  1  0  0  0  0
 21  1  1  0  0  0  0
 21 22  1  0  0  0  0
 21 23  1  0  0  0  0
  2 24  1  0  0  0  0
  1 25  1  0  0  0  0
  1 26  1  0  0  0  0
M  END
> <CAS>
79-92-5

> <NAME>
CAMPHENE

> <preferred_name>
Camphene

> <iupac>
C10H16

> <SMILES>
CC1(C)C2CC(CC2)C1=C

> <Canonical_QSARr>
CC1(C)C2CC(CC2)C1=C

> <InChI_Code_QSARr>
InChI=1S/C10H16/c1-7-8-4-5-9(6-8)10(7,2)3/h8-9H,1,4-6H2,2-3H3

> <InChI Key_QSARr>
CRPUJAZIXJMDBK-UHFFFAOYSA-N

> <Salt_Solvent>
?

> <WS Temperature>
25

> <WS Reference>
CHEMICALS INSPECTION AND TESTING INSTITU (1992)

> <dsstox_substance_id>
DTXSID8026488

> <LogMolar>
-4.4715

$$$$
80-15-9
  -INDIGO-01081615412D

 23 23  0  0  0  0  0  0  0  0999 V2000
   -0.7999   -1.3856    0.0000 O   0  0  0  0  0  0  0  0  0  0  0  0
   -0.0001    0.0000    0.0000 C   0  0  0  0  0  0  0  0  0  0  0  0
   -1.3856    0.8000    0.0000 C   0  0  0  0  0  0  0  0  0  0  0  0
   -2.7712    1.6001    0.0000 H   0  0  0  0  0  0  0  0  0  0  0  0
   -2.7712    0.0000    0.0000 H   0  0  0  0  0  0  0  0  0  0  0  0
   -1.6635    2.3757    0.0000 H   0  0  0  0  0  0  0  0  0  0  0  0
    0.8000    1.3857    0.0000 C   0  0  0  0  0  0  0  0  0  0  0  0
    1.8285    2.6113    0.0000 H   0  0  0  0  0  0  0  0  0  0  0  0
    0.2527    2.8891    0.0000 H   0  0  0  0  0  0  0  0  0  0  0  0
   -0.7035    1.9329    0.0000 H   0  0  0  0  0  0  0  0  0  0  0  0
    1.3856   -0.8000    0.0000 C   0  0  0  0  0  0  0  0  0  0  0  0
    1.3856   -2.4000    0.0000 C   0  0  0  0  0  0  0  0  0  0  0  0
   -0.0001   -3.2000    0.0000 H   0  0  0  0  0  0  0  0  0  0  0  0
    2.7713   -3.2000    0.0000 C   0  0  0  0  0  0  0  0  0  0  0  0
    2.7713   -4.8000    0.0000 H   0  0  0  0  0  0  0  0  0  0  0  0
    4.1569   -2.4000    0.0000 C   0  0  0  0  0  0  0  0  0  0  0  0
    5.5426   -3.2000    0.0000 H   0  0  0  0  0  0  0  0  0  0  0  0
    4.1569   -0.8000    0.0000 C   0  0  0  0  0  0  0  0  0  0  0  0
    5.5426    0.0000    0.0000 H   0  0  0  0  0  0  0  0  0  0  0  0
    2.7713    0.0000    0.0000 C   0  0  0  0  0  0  0  0  0  0  0  0
    2.7713    1.6001    0.0000 H   0  0  0  0  0  0  0  0  0  0  0  0
   -2.4000   -1.3856    0.0000 O   0  0  0  0  0  0  0  0  0  0  0  0
   -3.2000   -2.7713    0.0000 H   0  0  0  0  0  0  0  0  0  0  0  0
  1  2  1  0  0  0  0
  2  3  1  0  0  0  0
  3  4  1  0  0  0  0
  3  5  1  0  0  0  0
  3  6  1  0  0  0  0
  2  7  1  0  0  0  0
  7  8  1  0  0  0  0
  7  9  1  0  0  0  0
  7 10  1  0  0  0  0
  2 11  1  0  0  0  0
 11 12  4  0  0  0  0
 12 13  1  0  0  0  0
 12 14  4  0  0  0  0
 14 15  1  0  0  0  0
 14 16  4  0  0  0  0
 16 17  1  0  0  0  0
 16 18  4  0  0  0  0
 18 19  1  0  0  0  0
 18 20  4  0  0  0  0
 20 11  4  0  0  0  0
 20 21  1  0  0  0  0
  1 22  1  0  0  0  0
 22 23  1  0  0  0  0
M  END
> <CAS>
80-15-9

> <NAME>
CUMENE HYDROPEROXIDE

> <preferred_name>
Cumene hydroperoxide

> <iupac>
2-phenylpropan-2-yl hydroperoxide

> <SMILES>
CC(C)(OO)c1ccccc1

> <Canonical_QSARr>
CC(C)(OO)c1ccccc1

> <InChI_Code_QSARr>
InChI=1S/C9H12O2/c1-9(2,11-10)8-6-4-3-5-7-8/h3-7,10H,1-2H3

> <InChI Key_QSARr>
YQHLDYVWEZKEOX-UHFFFAOYSA-N

> <Salt_Solvent>
?

> <WS Temperature>
25

> <WS Reference>
YALKOWSKY,SH & DANNENFELSER,RM (1992)

> <dsstox_substance_id>
DTXSID3024869

> <LogMolar>
-1.0394

$$$$
80-56-8
  -INDIGO-01081615412D

 26 27  0  0  0  0  0  0  0  0999 V2000
   -2.7654    1.5159    0.0000 C   0  0  0  0  0  0  0  0  0  0  0  0
   -1.9203    2.9050    0.0000 C   0  0  0  0  0  0  0  0  0  0  0  0
   -0.4594    3.5575    0.0000 H   0  0  0  0  0  0  0  0  0  0  0  0
   -2.9779    4.1057    0.0000 H   0  0  0  0  0  0  0  0  0  0  0  0
   -1.5908    0.1225    0.0000 C   0  0  0  0  0  0  0  0  0  0  0  0
   -2.7945   -1.0216    0.0000 C   0  0  0  0  0  0  0  0  0  0  0  0
   -4.2510   -0.9552    0.0000 C   0  0  0  0  0  0  0  0  0  0  0  0
   -3.9894    0.4855    0.0000 C   0  0  0  0  0  0  0  0  0  0  0  0
   -5.3736    1.2881    0.0000 C   0  0  0  0  0  0  0  0  0  0  0  0
   -6.7578    2.0905    0.0000 H   0  0  0  0  0  0  0  0  0  0  0  0
   -6.7607    0.4906    0.0000 H   0  0  0  0  0  0  0  0  0  0  0  0
   -5.3709    2.8881    0.0000 H   0  0  0  0  0  0  0  0  0  0  0  0
   -5.5024   -1.9523    0.0000 H   0  0  0  0  0  0  0  0  0  0  0  0
   -3.2684   -2.5498    0.0000 H   0  0  0  0  0  0  0  0  0  0  0  0
   -2.0395   -2.4322    0.0000 H   0  0  0  0  0  0  0  0  0  0  0  0
   -1.0549   -1.3851    0.0000 H   0  0  0  0  0  0  0  0  0  0  0  0
   -0.0000    0.0001    0.0000 C   0  0  0  0  0  0  0  0  0  0  0  0
    0.4807   -1.5261    0.0000 C   0  0  0  0  0  0  0  0  0  0  0  0
    2.0427   -1.8728    0.0000 H   0  0  0  0  0  0  0  0  0  0  0  0
    0.9616   -3.0521    0.0000 H   0  0  0  0  0  0  0  0  0  0  0  0
    1.5620   -0.3467    0.0000 H   0  0  0  0  0  0  0  0  0  0  0  0
    1.2367    1.0150    0.0000 C   0  0  0  0  0  0  0  0  0  0  0  0
    2.4736    2.0301    0.0000 H   0  0  0  0  0  0  0  0  0  0  0  0
    0.9761    2.5937    0.0000 H   0  0  0  0  0  0  0  0  0  0  0  0
    2.7342    0.4516    0.0000 H   0  0  0  0  0  0  0  0  0  0  0  0
   -3.9800    2.5575    0.0000 H   0  0  0  0  0  0  0  0  0  0  0  0
  1  2  1  0  0  0  0
  2  3  1  0  0  0  0
  2  4  1  0  0  0  0
  2  5  1  0  0  0  0
  5  6  1  0  0  0  0
  6  7  1  0  0  0  0
  7  8  2  0  0  0  0
  8  1  1  0  0  0  0
  8  9  1  0  0  0  0
  9 10  1  0  0  0  0
  9 11  1  0  0  0  0
  9 12  1  0  0  0  0
  7 13  1  0  0  0  0
  6 14  1  0  0  0  0
  6 15  1  0  0  0  0
  5 16  1  0  0  0  0
  5 17  1  0  0  0  0
 17  1  1  0  0  0  0
 17 18  1  0  0  0  0
 18 19  1  0  0  0  0
 18 20  1  0  0  0  0
 18 21  1  0  0  0  0
 17 22  1  0  0  0  0
 22 23  1  0  0  0  0
 22 24  1  0  0  0  0
 22 25  1  0  0  0  0
  1 26  1  0  0  0  0
M  END
> <CAS>
80-56-8

> <NAME>
ALPHA-PINENE

> <preferred_name>
alpha-Pinene

> <iupac>
2,6,6-trimethylbicyclo[3.1.1]hept-2-ene

> <SMILES>
CC1=CCC2CC1C2(C)C

> <Canonical_QSARr>
CC1=CCC2CC1C2(C)C

> <InChI_Code_QSARr>
InChI=1S/C10H16/c1-7-4-5-8-6-9(7)10(8,2)3/h4,8-9H,5-6H2,1-3H3

> <InChI Key_QSARr>
GRWFGVWFFZKLTI-UHFFFAOYSA-N

> <Salt_Solvent>
?

> <WS Temperature>
25

> <WS Reference>
LI,J & PERDUE,EM (1995)

> <dsstox_substance_id>
DTXSID4026501

> <LogMolar>
-4.7381

$$$$
81-14-1
  -INDIGO-01081615412D

 39 39  0  0  0  0  0  0  0  0999 V2000
    7.2000    1.3856    0.0000 O   0  0  0  0  0  0  0  0  0  0  0  0
    6.4000    0.0001    0.0000 C   0  0  0  0  0  0  0  0  0  0  0  0
    7.2000   -1.3856    0.0000 C   0  0  0  0  0  0  0  0  0  0  0  0
    8.8000   -1.3856    0.0000 H   0  0  0  0  0  0  0  0  0  0  0  0
    8.0000   -2.7712    0.0000 H   0  0  0  0  0  0  0  0  0  0  0  0
    8.0000    0.0001    0.0000 H   0  0  0  0  0  0  0  0  0  0  0  0
    4.8000    0.0001    0.0000 C   0  0  0  0  0  0  0  0  0  0  0  0
    4.0000    1.3856    0.0000 C   0  0  0  0  0  0  0  0  0  0  0  0
    4.8000    2.7713    0.0000 C   0  0  0  0  0  0  0  0  0  0  0  0
    5.6000    4.1569    0.0000 H   0  0  0  0  0  0  0  0  0  0  0  0
    4.0000    4.1569    0.0000 H   0  0  0  0  0  0  0  0  0  0  0  0
    6.4000    2.7713    0.0000 H   0  0  0  0  0  0  0  0  0  0  0  0
    2.4000    1.3856    0.0000 C   0  0  0  0  0  0  0  0  0  0  0  0
    1.6000    2.7713    0.0000 N   0  0  0  0  0  0  0  0  0  0  0  0
    2.4000    4.1569    0.0000 O   0  0  0  0  0  0  0  0  0  0  0  0
    0.0244    3.0492    0.0000 O   0  0  0  0  0  0  0  0  0  0  0  0
    1.6000    0.0001    0.0000 C   0  0  0  0  0  0  0  0  0  0  0  0
    0.0000    0.0001    0.0000 C   0  0  0  0  0  0  0  0  0  0  0  0
   -1.6000   -0.0001    0.0000 C   0  0  0  0  0  0  0  0  0  0  0  0
   -3.2000   -0.0001    0.0000 H   0  0  0  0  0  0  0  0  0  0  0  0
   -2.8257    1.0284    0.0000 H   0  0  0  0  0  0  0  0  0  0  0  0
   -2.8257   -1.0284    0.0000 H   0  0  0  0  0  0  0  0  0  0  0  0
   -0.2778    1.5757    0.0000 C   0  0  0  0  0  0  0  0  0  0  0  0
   -1.5035    2.6041    0.0000 H   0  0  0  0  0  0  0  0  0  0  0  0
   -1.8536    1.2979    0.0000 H   0  0  0  0  0  0  0  0  0  0  0  0
    1.2257    1.0284    0.0000 H   0  0  0  0  0  0  0  0  0  0  0  0
   -0.2778   -1.5757    0.0000 C   0  0  0  0  0  0  0  0  0  0  0  0
   -1.6635   -2.3757    0.0000 H   0  0  0  0  0  0  0  0  0  0  0  0
   -1.8536   -1.2979    0.0000 H   0  0  0  0  0  0  0  0  0  0  0  0
    1.2257   -1.0284    0.0000 H   0  0  0  0  0  0  0  0  0  0  0  0
    2.4000   -1.3856    0.0000 C   0  0  0  0  0  0  0  0  0  0  0  0
    1.6000   -2.7712    0.0000 N   0  0  0  0  0  0  0  0  0  0  0  0
    2.4000   -4.1569    0.0000 O   0  0  0  0  0  0  0  0  0  0  0  0
    0.0000   -2.7712    0.0000 O   0  0  0  0  0  0  0  0  0  0  0  0
    4.0000   -1.3856    0.0000 C   0  0  0  0  0  0  0  0  0  0  0  0
    4.8000   -2.7712    0.0000 C   0  0  0  0  0  0  0  0  0  0  0  0
    5.6000   -4.1569    0.0000 H   0  0  0  0  0  0  0  0  0  0  0  0
    4.0000   -4.1569    0.0000 H   0  0  0  0  0  0  0  0  0  0  0  0
    6.4000   -2.7712    0.0000 H   0  0  0  0  0  0  0  0  0  0  0  0
  1  2  2  0  0  0  0
  2  3  1  0  0  0  0
  3  4  1  0  0  0  0
  3  5  1  0  0  0  0
  3  6  1  0  0  0  0
  2  7  1  0  0  0  0
  7  8  4  0  0  0  0
  8  9  1  0  0  0  0
  9 10  1  0  0  0  0
  9 11  1  0  0  0  0
  9 12  1  0  0  0  0
  8 13  4  0  0  0  0
 13 14  1  0  0  0  0
 14 15  2  0  0  0  0
 14 16  1  0  0  0  0
 13 17  4  0  0  0  0
 17 18  1  0  0  0  0
 18 19  1  0  0  0  0
 19 20  1  0  0  0  0
 19 21  1  0  0  0  0
 19 22  1  0  0  0  0
 18 23  1  0  0  0  0
 23 24  1  0  0  0  0
 23 25  1  0  0  0  0
 23 26  1  0  0  0  0
 18 27  1  0  0  0  0
 27 28  1  0  0  0  0
 27 29  1  0  0  0  0
 27 30  1  0  0  0  0
 17 31  4  0  0  0  0
 31 32  1  0  0  0  0
 32 33  1  0  0  0  0
 32 34  2  0  0  0  0
 31 35  4  0  0  0  0
 35  7  4  0  0  0  0
 35 36  1  0  0  0  0
 36 37  1  0  0  0  0
 36 38  1  0  0  0  0
 36 39  1  0  0  0  0
M  CHG  4  14   1  16  -1  32   1  33  -1
M  END
> <CAS>
81-14-1

> <NAME>
Musk ketone

> <preferred_name>
Musk ketone

> <iupac>
1-(4-tert-butyl-2,6-dimethyl-3,5-dinitrophenyl)ethanone

> <SMILES>
CC(=O)c1c(C)c(c(c(c1C)[N+]([O-])=O)C(C)(C)C)[N+]([O-])=O

> <Canonical_QSARr>
CC(=O)c1c(C)c(c(c(c1C)[N+]([O-])=O)C(C)(C)C)[N+]([O-])=O

> <InChI_Code_QSARr>
InChI=1S/C14H18N2O5/c1-7-10(9(3)17)8(2)13(16(20)21)11(14(4,5)6)12(7)15(18)19/h1-6H3

> <InChI Key_QSARr>
WXCMHFPAUCOJIG-UHFFFAOYSA-N

> <Salt_Solvent>
?

> <WS Temperature>


> <WS Reference>
TAS,JW ET AL. (1997)

> <dsstox_substance_id>
DTXSID6025690

> <LogMolar>
-5.1901

$$$$
81-81-2
  -INDIGO-01081615412D

 39 41  0  0  0  0  0  0  0  0999 V2000
    7.2001    1.3856    0.0000 C   0  0  0  0  0  0  0  0  0  0  0  0
    6.4000   -0.0000    0.0000 C   0  0  0  0  0  0  0  0  0  0  0  0
    7.2001   -1.3857    0.0000 H   0  0  0  0  0  0  0  0  0  0  0  0
    4.8000   -0.0000    0.0000 C   0  0  0  0  0  0  0  0  0  0  0  0
    3.9999   -1.3857    0.0000 O   0  0  0  0  0  0  0  0  0  0  0  0
    2.4000   -1.3857    0.0000 C   0  0  0  0  0  0  0  0  0  0  0  0
    1.5999   -0.0000    0.0000 C   0  0  0  0  0  0  0  0  0  0  0  0
    2.4000    1.3856    0.0000 C   0  0  0  0  0  0  0  0  0  0  0  0
    1.5999    2.7713    0.0000 O   0  0  0  0  0  0  0  0  0  0  0  0
    2.4000    4.1570    0.0000 H   0  0  0  0  0  0  0  0  0  0  0  0
    3.9999    1.3856    0.0000 C   0  0  0  0  0  0  0  0  0  0  0  0
    4.8000    2.7713    0.0000 C   0  0  0  0  0  0  0  0  0  0  0  0
    3.9999    4.1570    0.0000 H   0  0  0  0  0  0  0  0  0  0  0  0
    6.4000    2.7713    0.0000 C   0  0  0  0  0  0  0  0  0  0  0  0
    7.2001    4.1570    0.0000 H   0  0  0  0  0  0  0  0  0  0  0  0
   -0.0000   -0.0000    0.0000 C   0  0  0  0  0  0  0  0  0  0  0  0
   -1.5036    0.5473    0.0000 C   0  0  0  0  0  0  0  0  0  0  0  0
   -1.5036    2.1473    0.0000 C   0  0  0  0  0  0  0  0  0  0  0  0
   -0.2778    3.1756    0.0000 H   0  0  0  0  0  0  0  0  0  0  0  0
   -2.8890    2.9473    0.0000 C   0  0  0  0  0  0  0  0  0  0  0  0
   -2.8890    4.5472    0.0000 H   0  0  0  0  0  0  0  0  0  0  0  0
   -4.2747    2.1473    0.0000 C   0  0  0  0  0  0  0  0  0  0  0  0
   -5.6604    2.9473    0.0000 H   0  0  0  0  0  0  0  0  0  0  0  0
   -4.2747    0.5473    0.0000 C   0  0  0  0  0  0  0  0  0  0  0  0
   -5.6604   -0.2527    0.0000 H   0  0  0  0  0  0  0  0  0  0  0  0
   -2.8890   -0.2527    0.0000 C   0  0  0  0  0  0  0  0  0  0  0  0
   -2.8890   -1.8527    0.0000 H   0  0  0  0  0  0  0  0  0  0  0  0
   -0.2778   -1.5757    0.0000 C   0  0  0  0  0  0  0  0  0  0  0  0
   -0.5556   -3.1514    0.0000 C   0  0  0  0  0  0  0  0  0  0  0  0
    0.6701   -4.1798    0.0000 O   0  0  0  0  0  0  0  0  0  0  0  0
   -2.0592   -3.6986    0.0000 C   0  0  0  0  0  0  0  0  0  0  0  0
   -2.3370   -5.2743    0.0000 H   0  0  0  0  0  0  0  0  0  0  0  0
   -3.5627   -4.2459    0.0000 H   0  0  0  0  0  0  0  0  0  0  0  0
   -0.8334   -4.7271    0.0000 H   0  0  0  0  0  0  0  0  0  0  0  0
    1.2978   -1.8536    0.0000 H   0  0  0  0  0  0  0  0  0  0  0  0
   -1.8535   -1.2979    0.0000 H   0  0  0  0  0  0  0  0  0  0  0  0
    0.2778    1.5757    0.0000 H   0  0  0  0  0  0  0  0  0  0  0  0
    1.5999   -2.7712    0.0000 O   0  0  0  0  0  0  0  0  0  0  0  0
    8.8000    1.3856    0.0000 H   0  0  0  0  0  0  0  0  0  0  0  0
  1  2  4  0  0  0  0
  2  3  1  0  0  0  0
  2  4  4  0  0  0  0
  4  5  1  0  0  0  0
  5  6  1  0  0  0  0
  6  7  1  0  0  0  0
  7  8  2  0  0  0  0
  8  9  1  0  0  0  0
  9 10  1  0  0  0  0
  8 11  1  0  0  0  0
 11  4  4  0  0  0  0
 11 12  4  0  0  0  0
 12 13  1  0  0  0  0
 12 14  4  0  0  0  0
 14  1  4  0  0  0  0
 14 15  1  0  0  0  0
  7 16  1  0  0  0  0
 16 17  1  0  0  0  0
 17 18  4  0  0  0  0
 18 19  1  0  0  0  0
 18 20  4  0  0  0  0
 20 21  1  0  0  0  0
 20 22  4  0  0  0  0
 22 23  1  0  0  0  0
 22 24  4  0  0  0  0
 24 25  1  0  0  0  0
 24 26  4  0  0  0  0
 26 17  4  0  0  0  0
 26 27  1  0  0  0  0
 16 28  1  0  0  0  0
 28 29  1  0  0  0  0
 29 30  2  0  0  0  0
 29 31  1  0  0  0  0
 31 32  1  0  0  0  0
 31 33  1  0  0  0  0
 31 34  1  0  0  0  0
 28 35  1  0  0  0  0
 28 36  1  0  0  0  0
 16 37  1  0  0  0  0
  6 38  2  0  0  0  0
  1 39  1  0  0  0  0
M  END
> <CAS>
81-81-2

> <NAME>
WARFARIN

> <preferred_name>
Warfarin

> <iupac>
4-hydroxy-3-(3-oxo-1-phenylbutyl)-2H-chromen-2-one

> <SMILES>
CC(=O)CC(C1=C(O)c2ccccc2OC1=O)c1ccccc1

> <Canonical_QSARr>
CC(=O)CC(C1=C(O)c2ccccc2OC1=O)c1ccccc1

> <InChI_Code_QSARr>
InChI=1S/C19H16O4/c1-12(20)11-15(13-7-3-2-4-8-13)17-18(21)14-9-5-6-10-16(14)23-19(17)22/h2-10,15,21H,11H2,1H3

> <InChI Key_QSARr>
PJVWKTKQMONHTI-UHFFFAOYSA-N

> <Salt_Solvent>
?

> <WS Temperature>
20

> <WS Reference>
TOMLIN,C (1997)

> <dsstox_substance_id>
DTXSID5023742

> <LogMolar>
-4.2586

$$$$
82-28-0
  -INDIGO-01081615412D

 29 31  0  0  0  0  0  0  0  0999 V2000
   -1.3856    2.4000    0.0000 O   0  0  0  0  0  0  0  0  0  0  0  0
   -1.3856    0.8000    0.0000 C   0  0  0  0  0  0  0  0  0  0  0  0
   -2.7713   -0.0000    0.0000 C   0  0  0  0  0  0  0  0  0  0  0  0
   -4.1570    0.8000    0.0000 C   0  0  0  0  0  0  0  0  0  0  0  0
   -5.5425   -0.0000    0.0000 C   0  0  0  0  0  0  0  0  0  0  0  0
   -5.5425   -1.6000    0.0000 C   0  0  0  0  0  0  0  0  0  0  0  0
   -4.1570   -2.4000    0.0000 C   0  0  0  0  0  0  0  0  0  0  0  0
   -4.1570   -4.0000    0.0000 H   0  0  0  0  0  0  0  0  0  0  0  0
   -2.7713   -1.6000    0.0000 C   0  0  0  0  0  0  0  0  0  0  0  0
   -1.3856   -2.4000    0.0000 C   0  0  0  0  0  0  0  0  0  0  0  0
   -1.3856   -4.0000    0.0000 O   0  0  0  0  0  0  0  0  0  0  0  0
   -0.0001   -1.6000    0.0000 C   0  0  0  0  0  0  0  0  0  0  0  0
    1.3856   -2.4000    0.0000 C   0  0  0  0  0  0  0  0  0  0  0  0
    2.7713   -1.6000    0.0000 C   0  0  0  0  0  0  0  0  0  0  0  0
    2.7713   -0.0000    0.0000 C   0  0  0  0  0  0  0  0  0  0  0  0
    4.1569    0.8000    0.0000 C   0  0  0  0  0  0  0  0  0  0  0  0
    5.5426    1.6000    0.0000 H   0  0  0  0  0  0  0  0  0  0  0  0
    5.5426   -0.0000    0.0000 H   0  0  0  0  0  0  0  0  0  0  0  0
    4.1569    2.4000    0.0000 H   0  0  0  0  0  0  0  0  0  0  0  0
    1.3856    0.8000    0.0000 C   0  0  0  0  0  0  0  0  0  0  0  0
    1.3856    2.4000    0.0000 N   0  0  0  0  0  0  0  0  0  0  0  0
    2.7713    3.2000    0.0000 H   0  0  0  0  0  0  0  0  0  0  0  0
   -0.0001    3.2000    0.0000 H   0  0  0  0  0  0  0  0  0  0  0  0
   -0.0001   -0.0000    0.0000 C   0  0  0  0  0  0  0  0  0  0  0  0
    4.1569   -2.4000    0.0000 H   0  0  0  0  0  0  0  0  0  0  0  0
    1.3856   -4.0000    0.0000 H   0  0  0  0  0  0  0  0  0  0  0  0
   -6.9282   -2.4000    0.0000 H   0  0  0  0  0  0  0  0  0  0  0  0
   -6.9282    0.8000    0.0000 H   0  0  0  0  0  0  0  0  0  0  0  0
   -4.1570    2.4000    0.0000 H   0  0  0  0  0  0  0  0  0  0  0  0
  1  2  2  0  0  0  0
  2  3  1  0  0  0  0
  3  4  4  0  0  0  0
  4  5  4  0  0  0  0
  5  6  4  0  0  0  0
  6  7  4  0  0  0  0
  7  8  1  0  0  0  0
  7  9  4  0  0  0  0
  9  3  4  0  0  0  0
  9 10  1  0  0  0  0
 10 11  2  0  0  0  0
 10 12  1  0  0  0  0
 12 13  4  0  0  0  0
 13 14  4  0  0  0  0
 14 15  4  0  0  0  0
 15 16  1  0  0  0  0
 16 17  1  0  0  0  0
 16 18  1  0  0  0  0
 16 19  1  0  0  0  0
 15 20  4  0  0  0  0
 20 21  1  0  0  0  0
 21 22  1  0  0  0  0
 21 23  1  0  0  0  0
 20 24  4  0  0  0  0
 24  2  1  0  0  0  0
 24 12  4  0  0  0  0
 14 25  1  0  0  0  0
 13 26  1  0  0  0  0
  6 27  1  0  0  0  0
  5 28  1  0  0  0  0
  4 29  1  0  0  0  0
M  END
> <CAS>
82-28-0

> <NAME>
1-AMINO-2-METHYL-9,10-ANTHRACENEDIONE

> <preferred_name>
1-Amino-2-methylanthraquinone

> <iupac>
1-amino-2-methylanthracene-9,10-dione

> <SMILES>
Cc1ccc2c(c1N)C(=O)c1ccccc1C2=O

> <Canonical_QSARr>
Cc1ccc2c(c1N)C(=O)c1ccccc1C2=O

> <InChI_Code_QSARr>
InChI=1S/C15H11NO2/c1-8-6-7-11-12(13(8)16)15(18)10-5-3-2-4-9(10)14(11)17/h2-7H,16H2,1H3

> <InChI Key_QSARr>
ZLCUIOWQYBYEBG-UHFFFAOYSA-N

> <Salt_Solvent>
?

> <WS Temperature>
25

> <WS Reference>
BAUGHMAN,GL & PERENICH,TA (1988)

> <dsstox_substance_id>
DTXSID7020057

> <LogMolar>
-5.8541

$$$$
82-71-3
  -INDIGO-01081615412D

 20 20  0  0  0  0  0  0  0  0999 V2000
    0.0001    0.0000    0.0000 C   0  0  0  0  0  0  0  0  0  0  0  0
   -0.0001    1.6000    0.0000 N   0  0  0  0  0  0  0  0  0  0  0  0
    1.3856    2.4000    0.0000 O   0  0  0  0  0  0  0  0  0  0  0  0
   -1.3856    2.4000    0.0000 O   0  0  0  0  0  0  0  0  0  0  0  0
   -1.3856   -0.8000    0.0000 C   0  0  0  0  0  0  0  0  0  0  0  0
   -2.7713    0.0000    0.0000 O   0  0  0  0  0  0  0  0  0  0  0  0
   -4.1569   -0.8000    0.0000 H   0  0  0  0  0  0  0  0  0  0  0  0
   -1.3856   -2.4000    0.0000 C   0  0  0  0  0  0  0  0  0  0  0  0
   -2.7712   -3.2000    0.0000 N   0  0  0  0  0  0  0  0  0  0  0  0
   -2.7712   -4.8000    0.0000 O   0  0  0  0  0  0  0  0  0  0  0  0
   -4.1569   -2.4000    0.0000 O   0  0  0  0  0  0  0  0  0  0  0  0
    0.0001   -3.2000    0.0000 C   0  0  0  0  0  0  0  0  0  0  0  0
    0.0001   -4.8000    0.0000 H   0  0  0  0  0  0  0  0  0  0  0  0
    1.3856   -2.4000    0.0000 C   0  0  0  0  0  0  0  0  0  0  0  0
    2.7713   -3.2000    0.0000 N   0  0  0  0  0  0  0  0  0  0  0  0
    2.7713   -4.8000    0.0000 O   0  0  0  0  0  0  0  0  0  0  0  0
    4.1569   -2.4000    0.0000 O   0  0  0  0  0  0  0  0  0  0  0  0
    1.3856   -0.8000    0.0000 C   0  0  0  0  0  0  0  0  0  0  0  0
    2.7713    0.0000    0.0000 O   0  0  0  0  0  0  0  0  0  0  0  0
    4.1569   -0.8000    0.0000 H   0  0  0  0  0  0  0  0  0  0  0  0
  1  2  1  0  0  0  0
  2  3  1  0  0  0  0
  2  4  2  0  0  0  0
  1  5  4  0  0  0  0
  5  6  1  0  0  0  0
  6  7  1  0  0  0  0
  5  8  4  0  0  0  0
  8  9  1  0  0  0  0
  9 10  1  0  0  0  0
  9 11  2  0  0  0  0
  8 12  4  0  0  0  0
 12 13  1  0  0  0  0
 12 14  4  0  0  0  0
 14 15  1  0  0  0  0
 15 16  1  0  0  0  0
 15 17  2  0  0  0  0
 14 18  4  0  0  0  0
 18  1  4  0  0  0  0
 18 19  1  0  0  0  0
 19 20  1  0  0  0  0
M  CHG  6   2   1   3  -1   9   1  10  -1  15   1  16  -1
M  END
> <CAS>
82-71-3

> <NAME>
2,4,6-TRINITRORESORCINOL

> <preferred_name>
1,3-Benzenediol, 2,4,6-trinitro-

> <iupac>
2,4,6-trinitrobenzene-1,3-diol

> <SMILES>
[O-][N+](=O)c1c(O)c(cc(c1O)[N+]([O-])=O)[N+]([O-])=O

> <Canonical_QSARr>
[O-][N+](=O)c1c(O)c(cc(c1O)[N+]([O-])=O)[N+]([O-])=O

> <InChI_Code_QSARr>
InChI=1S/C6H3N3O8/c10-5-2(7(12)13)1-3(8(14)15)6(11)4(5)9(16)17/h1,10-11H

> <InChI Key_QSARr>
IXHMHWIBCIYOAZ-UHFFFAOYSA-N

> <Salt_Solvent>
?

> <WS Temperature>
25

> <WS Reference>
YALKOWSKY,SH & DANNENFELSER,RM (1992)

> <dsstox_substance_id>
DTXSID7058880

> <LogMolar>
-1.6617

$$$$
83-32-9
  -INDIGO-01081615412D

 22 24  0  0  0  0  0  0  0  0999 V2000
    2.4000    1.3856    0.0000 C   0  0  0  0  0  0  0  0  0  0  0  0
    0.8000    1.3856    0.0000 C   0  0  0  0  0  0  0  0  0  0  0  0
   -0.4517    2.3823    0.0000 C   0  0  0  0  0  0  0  0  0  0  0  0
   -1.8373    1.5823    0.0000 C   0  0  0  0  0  0  0  0  0  0  0  0
   -2.4585    3.0569    0.0000 H   0  0  0  0  0  0  0  0  0  0  0  0
   -3.3777    1.1497    0.0000 H   0  0  0  0  0  0  0  0  0  0  0  0
   -1.6000    0.0000    0.0000 C   0  0  0  0  0  0  0  0  0  0  0  0
    0.0000    0.0000    0.0000 C   0  0  0  0  0  0  0  0  0  0  0  0
    0.8000   -1.3857    0.0000 C   0  0  0  0  0  0  0  0  0  0  0  0
    0.0000   -2.7712    0.0000 C   0  0  0  0  0  0  0  0  0  0  0  0
   -1.6000   -2.7712    0.0000 C   0  0  0  0  0  0  0  0  0  0  0  0
   -2.4001   -1.3857    0.0000 C   0  0  0  0  0  0  0  0  0  0  0  0
   -4.0000   -1.3857    0.0000 H   0  0  0  0  0  0  0  0  0  0  0  0
   -2.4001   -4.1569    0.0000 H   0  0  0  0  0  0  0  0  0  0  0  0
    0.8000   -4.1569    0.0000 H   0  0  0  0  0  0  0  0  0  0  0  0
    2.4000   -1.3857    0.0000 C   0  0  0  0  0  0  0  0  0  0  0  0
    3.2001   -2.7712    0.0000 H   0  0  0  0  0  0  0  0  0  0  0  0
    3.2001    0.0000    0.0000 C   0  0  0  0  0  0  0  0  0  0  0  0
    4.8000    0.0000    0.0000 H   0  0  0  0  0  0  0  0  0  0  0  0
    0.6932    3.5001    0.0000 H   0  0  0  0  0  0  0  0  0  0  0  0
   -1.4181    3.6575    0.0000 H   0  0  0  0  0  0  0  0  0  0  0  0
    3.2001    2.7713    0.0000 H   0  0  0  0  0  0  0  0  0  0  0  0
  1  2  4  0  0  0  0
  2  3  1  0  0  0  0
  3  4  1  0  0  0  0
  4  5  1  0  0  0  0
  4  6  1  0  0  0  0
  4  7  1  0  0  0  0
  7  8  4  0  0  0  0
  8  2  4  0  0  0  0
  8  9  4  0  0  0  0
  9 10  4  0  0  0  0
 10 11  4  0  0  0  0
 11 12  4  0  0  0  0
 12  7  4  0  0  0  0
 12 13  1  0  0  0  0
 11 14  1  0  0  0  0
 10 15  1  0  0  0  0
  9 16  4  0  0  0  0
 16 17  1  0  0  0  0
 16 18  4  0  0  0  0
 18  1  4  0  0  0  0
 18 19  1  0  0  0  0
  3 20  1  0  0  0  0
  3 21  1  0  0  0  0
  1 22  1  0  0  0  0
M  END
> <CAS>
83-32-9

> <NAME>
ACENAPHTHENE

> <preferred_name>
Acenaphthene

> <iupac>
1,2-dihydroacenaphthylene

> <SMILES>
C1Cc2cccc3cccc1c23

> <Canonical_QSARr>
C1Cc2cccc3cccc1c23

> <InChI_Code_QSARr>
InChI=1S/C12H10/c1-3-9-4-2-6-11-8-7-10(5-1)12(9)11/h1-6H,7-8H2

> <InChI Key_QSARr>
CWRYPZZKDGJXCA-UHFFFAOYSA-N

> <Salt_Solvent>
?

> <WS Temperature>
25

> <WS Reference>
MILLER,MM ET AL. (1985)

> <dsstox_substance_id>
DTXSID3021774

> <LogMolar>
-4.597

$$$$
83-44-3
  -INDIGO-01081615412D

 68 71  0  0  0  0  0  0  0  0999 V2000
    0.0001   -0.0000    0.0000 C   0  0  0  0  0  0  0  0  0  0  0  0
    0.9406   -1.2944    0.0000 C   0  0  0  0  0  0  0  0  0  0  0  0
    2.2668   -2.1892    0.0000 H   0  0  0  0  0  0  0  0  0  0  0  0
    1.7321   -1.2585    0.0000 H   0  0  0  0  0  0  0  0  0  0  0  0
    1.1076   -2.8857    0.0000 H   0  0  0  0  0  0  0  0  0  0  0  0
    1.5651    0.3326    0.0000 C   0  0  0  0  0  0  0  0  0  0  0  0
    3.1409    0.6105    0.0000 C   0  0  0  0  0  0  0  0  0  0  0  0
    3.6879   -0.8930    0.0000 C   0  0  0  0  0  0  0  0  0  0  0  0
    4.2352   -2.3965    0.0000 H   0  0  0  0  0  0  0  0  0  0  0  0
    5.2636   -1.1709    0.0000 H   0  0  0  0  0  0  0  0  0  0  0  0
    4.7163    0.3326    0.0000 H   0  0  0  0  0  0  0  0  0  0  0  0
    4.6443    1.1577    0.0000 C   0  0  0  0  0  0  0  0  0  0  0  0
    6.1478    1.7050    0.0000 C   0  0  0  0  0  0  0  0  0  0  0  0
    7.6513    2.2522    0.0000 C   0  0  0  0  0  0  0  0  0  0  0  0
    7.9291    3.8279    0.0000 O   0  0  0  0  0  0  0  0  0  0  0  0
    9.4326    4.3751    0.0000 H   0  0  0  0  0  0  0  0  0  0  0  0
    8.8770    1.2237    0.0000 O   0  0  0  0  0  0  0  0  0  0  0  0
    5.6005    3.2085    0.0000 H   0  0  0  0  0  0  0  0  0  0  0  0
    6.6948    0.2014    0.0000 H   0  0  0  0  0  0  0  0  0  0  0  0
    5.4442   -0.2280    0.0000 H   0  0  0  0  0  0  0  0  0  0  0  0
    4.0970    2.6613    0.0000 H   0  0  0  0  0  0  0  0  0  0  0  0
    3.2799    1.4814    0.0000 H   0  0  0  0  0  0  0  0  0  0  0  0
    2.0884   -0.2627    0.0000 H   0  0  0  0  0  0  0  0  0  0  0  0
    1.7321    1.9239    0.0000 C   0  0  0  0  0  0  0  0  0  0  0  0
    2.5936    2.1140    0.0000 H   0  0  0  0  0  0  0  0  0  0  0  0
    2.2268    3.4456    0.0000 H   0  0  0  0  0  0  0  0  0  0  0  0
    0.2705    2.5746    0.0000 C   0  0  0  0  0  0  0  0  0  0  0  0
    1.0707    3.9603    0.0000 H   0  0  0  0  0  0  0  0  0  0  0  0
   -0.3802    4.0364    0.0000 H   0  0  0  0  0  0  0  0  0  0  0  0
   -0.8001    1.3857    0.0000 C   0  0  0  0  0  0  0  0  0  0  0  0
   -0.6328    2.9768    0.0000 H   0  0  0  0  0  0  0  0  0  0  0  0
   -2.3999    1.3857    0.0000 C   0  0  0  0  0  0  0  0  0  0  0  0
   -3.2001    2.7713    0.0000 C   0  0  0  0  0  0  0  0  0  0  0  0
   -4.7999    2.7713    0.0000 C   0  0  0  0  0  0  0  0  0  0  0  0
   -5.6001    1.3857    0.0000 C   0  0  0  0  0  0  0  0  0  0  0  0
   -7.2001    1.3857    0.0000 C   0  0  0  0  0  0  0  0  0  0  0  0
   -7.4779    2.9614    0.0000 H   0  0  0  0  0  0  0  0  0  0  0  0
   -8.7036    1.9329    0.0000 H   0  0  0  0  0  0  0  0  0  0  0  0
   -8.0000   -0.0000    0.0000 C   0  0  0  0  0  0  0  0  0  0  0  0
   -9.2257   -1.0284    0.0000 O   0  0  0  0  0  0  0  0  0  0  0  0
  -10.7292   -0.4812    0.0000 H   0  0  0  0  0  0  0  0  0  0  0  0
   -9.2257    1.0285    0.0000 H   0  0  0  0  0  0  0  0  0  0  0  0
   -7.2001   -1.3857    0.0000 C   0  0  0  0  0  0  0  0  0  0  0  0
   -8.7036   -1.9329    0.0000 H   0  0  0  0  0  0  0  0  0  0  0  0
   -6.9220   -2.9613    0.0000 H   0  0  0  0  0  0  0  0  0  0  0  0
   -5.6001   -1.3857    0.0000 C   0  0  0  0  0  0  0  0  0  0  0  0
   -5.8779   -2.9614    0.0000 H   0  0  0  0  0  0  0  0  0  0  0  0
   -4.7999   -2.7713    0.0000 H   0  0  0  0  0  0  0  0  0  0  0  0
   -4.7999   -0.0000    0.0000 C   0  0  0  0  0  0  0  0  0  0  0  0
   -4.3885   -0.4903    0.0000 C   0  0  0  0  0  0  0  0  0  0  0  0
   -4.9358   -1.9938    0.0000 H   0  0  0  0  0  0  0  0  0  0  0  0
   -4.0000   -1.3857    0.0000 H   0  0  0  0  0  0  0  0  0  0  0  0
   -5.9886   -0.4903    0.0000 H   0  0  0  0  0  0  0  0  0  0  0  0
   -3.2001   -0.0000    0.0000 C   0  0  0  0  0  0  0  0  0  0  0  0
   -3.1761   -0.9758    0.0000 H   0  0  0  0  0  0  0  0  0  0  0  0
   -2.3999   -1.3857    0.0000 C   0  0  0  0  0  0  0  0  0  0  0  0
   -3.4284   -2.6113    0.0000 H   0  0  0  0  0  0  0  0  0  0  0  0
   -2.1221   -2.9614    0.0000 H   0  0  0  0  0  0  0  0  0  0  0  0
   -0.8001   -1.3857    0.0000 C   0  0  0  0  0  0  0  0  0  0  0  0
   -1.0779   -2.9614    0.0000 O   0  0  0  0  0  0  0  0  0  0  0  0
    0.1477   -3.9898    0.0000 H   0  0  0  0  0  0  0  0  0  0  0  0
    0.5855   -2.1856    0.0000 H   0  0  0  0  0  0  0  0  0  0  0  0
   -6.3999    2.7713    0.0000 H   0  0  0  0  0  0  0  0  0  0  0  0
   -4.5221    4.3469    0.0000 H   0  0  0  0  0  0  0  0  0  0  0  0
   -6.0255    3.7997    0.0000 H   0  0  0  0  0  0  0  0  0  0  0  0
   -1.9744    3.7997    0.0000 H   0  0  0  0  0  0  0  0  0  0  0  0
   -3.4779    4.3469    0.0000 H   0  0  0  0  0  0  0  0  0  0  0  0
   -1.6000    2.7713    0.0000 H   0  0  0  0  0  0  0  0  0  0  0  0
  1  2  1  0  0  0  0
  2  3  1  0  0  0  0
  2  4  1  0  0  0  0
  2  5  1  0  0  0  0
  1  6  1  0  0  0  0
  6  7  1  0  0  0  0
  7  8  1  0  0  0  0
  8  9  1  0  0  0  0
  8 10  1  0  0  0  0
  8 11  1  0  0  0  0
  7 12  1  0  0  0  0
 12 13  1  0  0  0  0
 13 14  1  0  0  0  0
 14 15  1  0  0  0  0
 15 16  1  0  0  0  0
 14 17  2  0  0  0  0
 13 18  1  0  0  0  0
 13 19  1  0  0  0  0
 12 20  1  0  0  0  0
 12 21  1  0  0  0  0
  7 22  1  0  0  0  0
  6 23  1  0  0  0  0
  6 24  1  0  0  0  0
 24 25  1  0  0  0  0
 24 26  1  0  0  0  0
 24 27  1  0  0  0  0
 27 28  1  0  0  0  0
 27 29  1  0  0  0  0
 27 30  1  0  0  0  0
 30  1  1  0  0  0  0
 30 31  1  0  0  0  0
 30 32  1  0  0  0  0
 32 33  1  0  0  0  0
 33 34  1  0  0  0  0
 34 35  1  0  0  0  0
 35 36  1  0  0  0  0
 36 37  1  0  0  0  0
 36 38  1  0  0  0  0
 36 39  1  0  0  0  0
 39 40  1  0  0  0  0
 40 41  1  0  0  0  0
 39 42  1  0  0  0  0
 39 43  1  0  0  0  0
 43 44  1  0  0  0  0
 43 45  1  0  0  0  0
 43 46  1  0  0  0  0
 46 47  1  0  0  0  0
 46 48  1  0  0  0  0
 46 49  1  0  0  0  0
 49 35  1  0  0  0  0
 49 50  1  0  0  0  0
 50 51  1  0  0  0  0
 50 52  1  0  0  0  0
 50 53  1  0  0  0  0
 49 54  1  0  0  0  0
 54 32  1  0  0  0  0
 54 55  1  0  0  0  0
 54 56  1  0  0  0  0
 56 57  1  0  0  0  0
 56 58  1  0  0  0  0
 56 59  1  0  0  0  0
 59  1  1  0  0  0  0
 59 60  1  0  0  0  0
 60 61  1  0  0  0  0
 59 62  1  0  0  0  0
 35 63  1  0  0  0  0
 34 64  1  0  0  0  0
 34 65  1  0  0  0  0
 33 66  1  0  0  0  0
 33 67  1  0  0  0  0
 32 68  1  0  0  0  0
M  END
> <CAS>
83-44-3

> <NAME>
DEOXYCHOLIC ACID

> <preferred_name>
Deoxycholic acid

> <iupac>
(3alpha,5beta,12alpha)-3,12-dihydroxycholan-24-oic acid

> <SMILES>
C[C@H](CCC(O)=O)[C@H]1CC[C@H]2[C@@H]3CC[C@@H]4C[C@H](O)CC[C@]4(C)[C@H]3C[C@H](O)[C@@]21C

> <Canonical_QSARr>
CC(CCC(O)=O)C1CCC2C3CCC4CC(O)CCC4(C)C3CC(O)C21C

> <InChI_Code_QSARr>
InChI=1S/C24H40O4/c1-14(4-9-22(27)28)18-7-8-19-17-6-5-15-12-16(25)10-11-23(15,2)20(17)13-21(26)24(18,19)3/h14-21,25-26H,4-13H2,1-3H3,(H,27,28)

> <InChI Key_QSARr>
KXGVEGMKQFWNSR-UHFFFAOYSA-N

> <Salt_Solvent>
?

> <WS Temperature>
20

> <WS Reference>
YALKOWSKY,SH & DANNENFELSER,RM (1992)

> <dsstox_substance_id>
DTXSID0042662

> <LogMolar>
-3.9544

$$$$
83-79-4
  -INDIGO-01081615412D

 51 55  0  0  0  0  0  0  0  0999 V2000
    3.2000   -0.0000    0.0000 C   0  0  0  0  0  0  0  0  0  0  0  0
    2.4001    1.3857    0.0000 O   0  0  0  0  0  0  0  0  0  0  0  0
    0.8001    1.3857    0.0000 C   0  0  0  0  0  0  0  0  0  0  0  0
   -0.0001    2.7713    0.0000 C   0  0  0  0  0  0  0  0  0  0  0  0
   -1.6001    2.7713    0.0000 O   0  0  0  0  0  0  0  0  0  0  0  0
   -2.3999    1.3857    0.0000 C   0  0  0  0  0  0  0  0  0  0  0  0
   -4.0000    1.3857    0.0000 C   0  0  0  0  0  0  0  0  0  0  0  0
   -4.8001    2.7713    0.0000 H   0  0  0  0  0  0  0  0  0  0  0  0
   -4.8001   -0.0000    0.0000 C   0  0  0  0  0  0  0  0  0  0  0  0
   -6.4001   -0.0000    0.0000 O   0  0  0  0  0  0  0  0  0  0  0  0
   -7.2000    1.3857    0.0000 C   0  0  0  0  0  0  0  0  0  0  0  0
   -8.8000    1.3857    0.0000 H   0  0  0  0  0  0  0  0  0  0  0  0
   -8.0001    2.7713    0.0000 H   0  0  0  0  0  0  0  0  0  0  0  0
   -8.0001   -0.0000    0.0000 H   0  0  0  0  0  0  0  0  0  0  0  0
   -4.0000   -1.3856    0.0000 C   0  0  0  0  0  0  0  0  0  0  0  0
   -4.8001   -2.7713    0.0000 O   0  0  0  0  0  0  0  0  0  0  0  0
   -6.4001   -2.7713    0.0000 C   0  0  0  0  0  0  0  0  0  0  0  0
   -7.2000   -4.1569    0.0000 H   0  0  0  0  0  0  0  0  0  0  0  0
   -8.0001   -2.7713    0.0000 H   0  0  0  0  0  0  0  0  0  0  0  0
   -5.6000   -4.1569    0.0000 H   0  0  0  0  0  0  0  0  0  0  0  0
   -2.3999   -1.3856    0.0000 C   0  0  0  0  0  0  0  0  0  0  0  0
   -1.6001   -2.7713    0.0000 H   0  0  0  0  0  0  0  0  0  0  0  0
   -1.6001   -0.0000    0.0000 C   0  0  0  0  0  0  0  0  0  0  0  0
   -0.0001   -0.0000    0.0000 C   0  0  0  0  0  0  0  0  0  0  0  0
   -0.7999   -1.3856    0.0000 H   0  0  0  0  0  0  0  0  0  0  0  0
    0.8001   -1.3856    0.0000 C   0  0  0  0  0  0  0  0  0  0  0  0
   -0.0001   -2.7713    0.0000 O   0  0  0  0  0  0  0  0  0  0  0  0
    2.4001   -1.3856    0.0000 C   0  0  0  0  0  0  0  0  0  0  0  0
    3.2000   -2.7713    0.0000 C   0  0  0  0  0  0  0  0  0  0  0  0
    2.4001   -4.1569    0.0000 H   0  0  0  0  0  0  0  0  0  0  0  0
    4.8000   -2.7713    0.0000 C   0  0  0  0  0  0  0  0  0  0  0  0
    5.6002   -4.1569    0.0000 H   0  0  0  0  0  0  0  0  0  0  0  0
    5.6002   -1.3856    0.0000 C   0  0  0  0  0  0  0  0  0  0  0  0
    7.1651   -1.0530    0.0000 O   0  0  0  0  0  0  0  0  0  0  0  0
    7.3323    0.5382    0.0000 C   0  0  0  0  0  0  0  0  0  0  0  0
    8.8973    0.2056    0.0000 C   0  0  0  0  0  0  0  0  0  0  0  0
    9.9680    1.3946    0.0000 C   0  0  0  0  0  0  0  0  0  0  0  0
   11.0384    2.5836    0.0000 H   0  0  0  0  0  0  0  0  0  0  0  0
   11.5330    1.0619    0.0000 H   0  0  0  0  0  0  0  0  0  0  0  0
    9.4735    2.9164    0.0000 H   0  0  0  0  0  0  0  0  0  0  0  0
    9.3919   -1.3161    0.0000 C   0  0  0  0  0  0  0  0  0  0  0  0
   10.9568   -1.6488    0.0000 H   0  0  0  0  0  0  0  0  0  0  0  0
    8.3211   -2.5052    0.0000 H   0  0  0  0  0  0  0  0  0  0  0  0
    5.8707    1.1890    0.0000 C   0  0  0  0  0  0  0  0  0  0  0  0
    6.6706    2.5747    0.0000 H   0  0  0  0  0  0  0  0  0  0  0  0
    4.5763    2.1295    0.0000 H   0  0  0  0  0  0  0  0  0  0  0  0
    4.8000   -0.0000    0.0000 C   0  0  0  0  0  0  0  0  0  0  0  0
    7.8266    2.0599    0.0000 H   0  0  0  0  0  0  0  0  0  0  0  0
    1.0285    3.9970    0.0000 H   0  0  0  0  0  0  0  0  0  0  0  0
   -0.2777    4.3470    0.0000 H   0  0  0  0  0  0  0  0  0  0  0  0
    1.6000    2.7713    0.0000 H   0  0  0  0  0  0  0  0  0  0  0  0
  1  2  1  0  0  0  0
  2  3  1  0  0  0  0
  3  4  1  0  0  0  0
  4  5  1  0  0  0  0
  5  6  1  0  0  0  0
  6  7  4  0  0  0  0
  7  8  1  0  0  0  0
  7  9  4  0  0  0  0
  9 10  1  0  0  0  0
 10 11  1  0  0  0  0
 11 12  1  0  0  0  0
 11 13  1  0  0  0  0
 11 14  1  0  0  0  0
  9 15  4  0  0  0  0
 15 16  1  0  0  0  0
 16 17  1  0  0  0  0
 17 18  1  0  0  0  0
 17 19  1  0  0  0  0
 17 20  1  0  0  0  0
 15 21  4  0  0  0  0
 21 22  1  0  0  0  0
 21 23  4  0  0  0  0
 23  6  4  0  0  0  0
 23 24  1  0  0  0  0
 24  3  1  0  0  0  0
 24 25  1  0  0  0  0
 24 26  1  0  0  0  0
 26 27  2  0  0  0  0
 26 28  1  0  0  0  0
 28  1  4  0  0  0  0
 28 29  4  0  0  0  0
 29 30  1  0  0  0  0
 29 31  4  0  0  0  0
 31 32  1  0  0  0  0
 31 33  4  0  0  0  0
 33 34  1  0  0  0  0
 34 35  1  0  0  0  0
 35 36  1  0  0  0  0
 36 37  1  0  0  0  0
 37 38  1  0  0  0  0
 37 39  1  0  0  0  0
 37 40  1  0  0  0  0
 36 41  2  0  0  0  0
 41 42  1  0  0  0  0
 41 43  1  0  0  0  0
 35 44  1  0  0  0  0
 44 45  1  0  0  0  0
 44 46  1  0  0  0  0
 44 47  1  0  0  0  0
 47  1  4  0  0  0  0
 47 33  4  0  0  0  0
 35 48  1  0  0  0  0
  4 49  1  0  0  0  0
  4 50  1  0  0  0  0
  3 51  1  0  0  0  0
M  END
> <CAS>
83-79-4

> <NAME>
ROTENONE

> <preferred_name>
Rotenone

> <iupac>
(2R,6aS,12aS)-8,9-dimethoxy-2-(prop-1-en-2-yl)-1,2,12,12a-tetrahydrochromeno[3,4-b]furo[2,3-h]chromen-6(6aH)-one

> <SMILES>
CC(=C)[C@H]1Cc2c3O[C@@H]4COc5cc(OC)c(cc5[C@@H]4C(=O)c3ccc2O1)OC

> <Canonical_QSARr>
CC(=C)C1Cc2c3OC4COc5cc(OC)c(cc5C4C(=O)c3ccc2O1)OC

> <InChI_Code_QSARr>
InChI=1S/C23H22O6/c1-11(2)16-8-14-15(28-16)6-5-12-22(24)21-13-7-18(25-3)19(26-4)9-17(13)27-10-20(21)29-23(12)14/h5-7,9,16,20-21H,1,8,10H2,2-4H3

> <InChI Key_QSARr>
JUVIOZPCNVVQFO-UHFFFAOYSA-N

> <Salt_Solvent>
?

> <WS Temperature>
20

> <WS Reference>
AUGUSTIJN-BECKERS,PWM ET AL. (1994)

> <dsstox_substance_id>
DTXSID6021248

> <LogMolar>
-6.2949

$$$$
84-11-7
  -INDIGO-01081615412D

 24 26  0  0  0  0  0  0  0  0999 V2000
   -0.0001    0.0000    0.0000 C   0  0  0  0  0  0  0  0  0  0  0  0
   -0.8001    1.3856    0.0000 C   0  0  0  0  0  0  0  0  0  0  0  0
   -0.0001    2.7713    0.0000 H   0  0  0  0  0  0  0  0  0  0  0  0
   -2.4000    1.3856    0.0000 C   0  0  0  0  0  0  0  0  0  0  0  0
   -3.2000    2.7713    0.0000 H   0  0  0  0  0  0  0  0  0  0  0  0
   -3.2000    0.0000    0.0000 C   0  0  0  0  0  0  0  0  0  0  0  0
   -4.8000    0.0000    0.0000 H   0  0  0  0  0  0  0  0  0  0  0  0
   -2.4000   -1.3856    0.0000 C   0  0  0  0  0  0  0  0  0  0  0  0
   -3.2000   -2.7713    0.0000 H   0  0  0  0  0  0  0  0  0  0  0  0
   -0.8001   -1.3856    0.0000 C   0  0  0  0  0  0  0  0  0  0  0  0
   -0.0001   -2.7713    0.0000 C   0  0  0  0  0  0  0  0  0  0  0  0
   -0.8001   -4.1569    0.0000 O   0  0  0  0  0  0  0  0  0  0  0  0
    1.6001   -2.7713    0.0000 C   0  0  0  0  0  0  0  0  0  0  0  0
    2.4001   -4.1569    0.0000 O   0  0  0  0  0  0  0  0  0  0  0  0
    2.4001   -1.3856    0.0000 C   0  0  0  0  0  0  0  0  0  0  0  0
    4.0000   -1.3856    0.0000 C   0  0  0  0  0  0  0  0  0  0  0  0
    4.8000    0.0000    0.0000 C   0  0  0  0  0  0  0  0  0  0  0  0
    4.0000    1.3856    0.0000 C   0  0  0  0  0  0  0  0  0  0  0  0
    2.4001    1.3856    0.0000 C   0  0  0  0  0  0  0  0  0  0  0  0
    1.6001    2.7713    0.0000 H   0  0  0  0  0  0  0  0  0  0  0  0
    1.6001    0.0000    0.0000 C   0  0  0  0  0  0  0  0  0  0  0  0
    4.8000    2.7713    0.0000 H   0  0  0  0  0  0  0  0  0  0  0  0
    6.4000    0.0000    0.0000 H   0  0  0  0  0  0  0  0  0  0  0  0
    4.8000   -2.7713    0.0000 H   0  0  0  0  0  0  0  0  0  0  0  0
  1  2  4  0  0  0  0
  2  3  1  0  0  0  0
  2  4  4  0  0  0  0
  4  5  1  0  0  0  0
  4  6  4  0  0  0  0
  6  7  1  0  0  0  0
  6  8  4  0  0  0  0
  8  9  1  0  0  0  0
  8 10  4  0  0  0  0
 10  1  4  0  0  0  0
 10 11  1  0  0  0  0
 11 12  2  0  0  0  0
 11 13  1  0  0  0  0
 13 14  2  0  0  0  0
 13 15  1  0  0  0  0
 15 16  4  0  0  0  0
 16 17  4  0  0  0  0
 17 18  4  0  0  0  0
 18 19  4  0  0  0  0
 19 20  1  0  0  0  0
 19 21  4  0  0  0  0
 21  1  1  0  0  0  0
 21 15  4  0  0  0  0
 18 22  1  0  0  0  0
 17 23  1  0  0  0  0
 16 24  1  0  0  0  0
M  END
> <CAS>
84-11-7

> <NAME>
9,10-PHENANTHRENEDIONE

> <preferred_name>
9,10-Phenanthrenedione

> <iupac>
Phenanthrene-9,10-dione

> <SMILES>
O=C1c2ccccc2-c2ccccc2C1=O

> <Canonical_QSARr>
O=C1c2ccccc2-c2ccccc2C1=O

> <InChI_Code_QSARr>
InChI=1S/C14H8O2/c15-13-11-7-3-1-5-9(11)10-6-2-4-8-12(10)14(13)16/h1-8H

> <InChI Key_QSARr>
YYVYAPXYZVYDHN-UHFFFAOYSA-N

> <Salt_Solvent>
?

> <WS Temperature>
25

> <WS Reference>
BEILSTEIN

> <dsstox_substance_id>
DTXSID3058901

> <LogMolar>
-4.4435

$$$$
84-62-8
  -INDIGO-01081615412D

 38 40  0  0  0  0  0  0  0  0999 V2000
    2.4001    4.1569    0.0000 C   0  0  0  0  0  0  0  0  0  0  0  0
    3.1999    2.7712    0.0000 C   0  0  0  0  0  0  0  0  0  0  0  0
    2.4001    1.3857    0.0000 O   0  0  0  0  0  0  0  0  0  0  0  0
    0.8000    1.3856    0.0000 C   0  0  0  0  0  0  0  0  0  0  0  0
   -0.0001    0.0001    0.0000 C   0  0  0  0  0  0  0  0  0  0  0  0
   -1.5999    0.0001    0.0000 C   0  0  0  0  0  0  0  0  0  0  0  0
   -2.4000    1.3856    0.0000 C   0  0  0  0  0  0  0  0  0  0  0  0
   -3.9999    1.3856    0.0000 O   0  0  0  0  0  0  0  0  0  0  0  0
   -4.7999    2.7712    0.0000 C   0  0  0  0  0  0  0  0  0  0  0  0
   -3.9999    4.1569    0.0000 C   0  0  0  0  0  0  0  0  0  0  0  0
   -2.4000    4.1569    0.0000 H   0  0  0  0  0  0  0  0  0  0  0  0
   -4.7999    5.5425    0.0000 C   0  0  0  0  0  0  0  0  0  0  0  0
   -3.9999    6.9282    0.0000 H   0  0  0  0  0  0  0  0  0  0  0  0
   -6.4001    5.5425    0.0000 C   0  0  0  0  0  0  0  0  0  0  0  0
   -7.2001    6.9282    0.0000 H   0  0  0  0  0  0  0  0  0  0  0  0
   -7.1999    4.1569    0.0000 C   0  0  0  0  0  0  0  0  0  0  0  0
   -8.8000    4.1569    0.0000 H   0  0  0  0  0  0  0  0  0  0  0  0
   -6.4001    2.7712    0.0000 C   0  0  0  0  0  0  0  0  0  0  0  0
   -7.1999    1.3856    0.0000 H   0  0  0  0  0  0  0  0  0  0  0  0
   -1.5999    2.7712    0.0000 O   0  0  0  0  0  0  0  0  0  0  0  0
   -2.4000   -1.3856    0.0000 C   0  0  0  0  0  0  0  0  0  0  0  0
   -3.9999   -1.3856    0.0000 H   0  0  0  0  0  0  0  0  0  0  0  0
   -1.5999   -2.7713    0.0000 C   0  0  0  0  0  0  0  0  0  0  0  0
   -2.4000   -4.1569    0.0000 H   0  0  0  0  0  0  0  0  0  0  0  0
   -0.0001   -2.7713    0.0000 C   0  0  0  0  0  0  0  0  0  0  0  0
    0.8000   -4.1569    0.0000 H   0  0  0  0  0  0  0  0  0  0  0  0
    0.8000   -1.3856    0.0000 C   0  0  0  0  0  0  0  0  0  0  0  0
    2.4001   -1.3856    0.0000 H   0  0  0  0  0  0  0  0  0  0  0  0
   -0.0001    2.7712    0.0000 O   0  0  0  0  0  0  0  0  0  0  0  0
    4.8001    2.7712    0.0000 C   0  0  0  0  0  0  0  0  0  0  0  0
    5.6001    1.3857    0.0000 H   0  0  0  0  0  0  0  0  0  0  0  0
    5.6001    4.1569    0.0000 C   0  0  0  0  0  0  0  0  0  0  0  0
    7.2000    4.1569    0.0000 H   0  0  0  0  0  0  0  0  0  0  0  0
    4.8001    5.5425    0.0000 C   0  0  0  0  0  0  0  0  0  0  0  0
    5.6001    6.9282    0.0000 H   0  0  0  0  0  0  0  0  0  0  0  0
    3.1999    5.5425    0.0000 C   0  0  0  0  0  0  0  0  0  0  0  0
    2.4001    6.9282    0.0000 H   0  0  0  0  0  0  0  0  0  0  0  0
    0.8000    4.1569    0.0000 H   0  0  0  0  0  0  0  0  0  0  0  0
  1  2  4  0  0  0  0
  2  3  1  0  0  0  0
  3  4  1  0  0  0  0
  4  5  1  0  0  0  0
  5  6  4  0  0  0  0
  6  7  1  0  0  0  0
  7  8  1  0  0  0  0
  8  9  1  0  0  0  0
  9 10  4  0  0  0  0
 10 11  1  0  0  0  0
 10 12  4  0  0  0  0
 12 13  1  0  0  0  0
 12 14  4  0  0  0  0
 14 15  1  0  0  0  0
 14 16  4  0  0  0  0
 16 17  1  0  0  0  0
 16 18  4  0  0  0  0
 18  9  4  0  0  0  0
 18 19  1  0  0  0  0
  7 20  2  0  0  0  0
  6 21  4  0  0  0  0
 21 22  1  0  0  0  0
 21 23  4  0  0  0  0
 23 24  1  0  0  0  0
 23 25  4  0  0  0  0
 25 26  1  0  0  0  0
 25 27  4  0  0  0  0
 27  5  4  0  0  0  0
 27 28  1  0  0  0  0
  4 29  2  0  0  0  0
  2 30  4  0  0  0  0
 30 31  1  0  0  0  0
 30 32  4  0  0  0  0
 32 33  1  0  0  0  0
 32 34  4  0  0  0  0
 34 35  1  0  0  0  0
 34 36  4  0  0  0  0
 36  1  4  0  0  0  0
 36 37  1  0  0  0  0
  1 38  1  0  0  0  0
M  END
> <CAS>
84-62-8

> <NAME>
DIPHENYL PHTHALATE

> <preferred_name>
Diphenyl phthalate

> <iupac>
diphenyl benzene-1,2-dicarboxylate

> <SMILES>
O=C(Oc1ccccc1)c1ccccc1C(=O)Oc1ccccc1

> <Canonical_QSARr>
O=C(Oc1ccccc1)c1ccccc1C(=O)Oc1ccccc1

> <InChI_Code_QSARr>
InChI=1S/C20H14O4/c21-19(23-15-9-3-1-4-10-15)17-13-7-8-14-18(17)20(22)24-16-11-5-2-6-12-16/h1-14H

> <InChI Key_QSARr>
DWNAQMUDCDVSLT-UHFFFAOYSA-N

> <Salt_Solvent>
?

> <WS Temperature>
25

> <WS Reference>
HOLLIFIELD,HC (1979)

> <dsstox_substance_id>
DTXSID3021778

> <LogMolar>
-6.5891

$$$$
84-74-2
  -INDIGO-01081615412D

 42 42  0  0  0  0  0  0  0  0999 V2000
   -5.5999    6.9281    0.0000 C   0  0  0  0  0  0  0  0  0  0  0  0
   -6.4000    5.5426    0.0000 C   0  0  0  0  0  0  0  0  0  0  0  0
   -8.0001    5.5426    0.0000 H   0  0  0  0  0  0  0  0  0  0  0  0
   -5.5999    4.1569    0.0000 C   0  0  0  0  0  0  0  0  0  0  0  0
   -6.4000    2.7712    0.0000 C   0  0  0  0  0  0  0  0  0  0  0  0
   -7.9999    2.7712    0.0000 O   0  0  0  0  0  0  0  0  0  0  0  0
   -8.7999    1.3857    0.0000 C   0  0  0  0  0  0  0  0  0  0  0  0
   -9.6000   -0.0000    0.0000 C   0  0  0  0  0  0  0  0  0  0  0  0
  -10.4001   -1.3857    0.0000 C   0  0  0  0  0  0  0  0  0  0  0  0
  -11.1999   -2.7712    0.0000 C   0  0  0  0  0  0  0  0  0  0  0  0
  -11.9999   -4.1569    0.0000 H   0  0  0  0  0  0  0  0  0  0  0  0
  -12.8000   -2.7712    0.0000 H   0  0  0  0  0  0  0  0  0  0  0  0
  -10.4001   -4.1569    0.0000 H   0  0  0  0  0  0  0  0  0  0  0  0
  -11.7856   -0.5857    0.0000 H   0  0  0  0  0  0  0  0  0  0  0  0
   -9.0143   -2.1857    0.0000 H   0  0  0  0  0  0  0  0  0  0  0  0
  -10.9855    0.8000    0.0000 H   0  0  0  0  0  0  0  0  0  0  0  0
   -8.2145   -0.8000    0.0000 H   0  0  0  0  0  0  0  0  0  0  0  0
  -10.1857    2.1857    0.0000 H   0  0  0  0  0  0  0  0  0  0  0  0
   -7.4144    0.5857    0.0000 H   0  0  0  0  0  0  0  0  0  0  0  0
   -5.5999    1.3857    0.0000 O   0  0  0  0  0  0  0  0  0  0  0  0
   -4.0001    4.1569    0.0000 C   0  0  0  0  0  0  0  0  0  0  0  0
   -3.2000    2.7712    0.0000 C   0  0  0  0  0  0  0  0  0  0  0  0
   -1.5999    2.7712    0.0000 O   0  0  0  0  0  0  0  0  0  0  0  0
   -0.8001    1.3857    0.0000 C   0  0  0  0  0  0  0  0  0  0  0  0
    0.0000   -0.0000    0.0000 C   0  0  0  0  0  0  0  0  0  0  0  0
    0.8001   -1.3857    0.0000 C   0  0  0  0  0  0  0  0  0  0  0  0
    1.6001   -2.7712    0.0000 C   0  0  0  0  0  0  0  0  0  0  0  0
    2.3999   -4.1569    0.0000 H   0  0  0  0  0  0  0  0  0  0  0  0
    3.2000   -2.7712    0.0000 H   0  0  0  0  0  0  0  0  0  0  0  0
    0.8001   -4.1569    0.0000 H   0  0  0  0  0  0  0  0  0  0  0  0
    2.1856   -0.5857    0.0000 H   0  0  0  0  0  0  0  0  0  0  0  0
   -0.5857   -2.1857    0.0000 H   0  0  0  0  0  0  0  0  0  0  0  0
    1.3858    0.8000    0.0000 H   0  0  0  0  0  0  0  0  0  0  0  0
   -1.3855   -0.8000    0.0000 H   0  0  0  0  0  0  0  0  0  0  0  0
    0.5857    2.1857    0.0000 H   0  0  0  0  0  0  0  0  0  0  0  0
   -2.1856    0.5857    0.0000 H   0  0  0  0  0  0  0  0  0  0  0  0
   -4.0001    1.3857    0.0000 O   0  0  0  0  0  0  0  0  0  0  0  0
   -3.2000    5.5426    0.0000 C   0  0  0  0  0  0  0  0  0  0  0  0
   -1.5999    5.5426    0.0000 H   0  0  0  0  0  0  0  0  0  0  0  0
   -4.0001    6.9281    0.0000 C   0  0  0  0  0  0  0  0  0  0  0  0
   -3.2000    8.3138    0.0000 H   0  0  0  0  0  0  0  0  0  0  0  0
   -6.4000    8.3138    0.0000 H   0  0  0  0  0  0  0  0  0  0  0  0
  1  2  4  0  0  0  0
  2  3  1  0  0  0  0
  2  4  4  0  0  0  0
  4  5  1  0  0  0  0
  5  6  1  0  0  0  0
  6  7  1  0  0  0  0
  7  8  1  0  0  0  0
  8  9  1  0  0  0  0
  9 10  1  0  0  0  0
 10 11  1  0  0  0  0
 10 12  1  0  0  0  0
 10 13  1  0  0  0  0
  9 14  1  0  0  0  0
  9 15  1  0  0  0  0
  8 16  1  0  0  0  0
  8 17  1  0  0  0  0
  7 18  1  0  0  0  0
  7 19  1  0  0  0  0
  5 20  2  0  0  0  0
  4 21  4  0  0  0  0
 21 22  1  0  0  0  0
 22 23  1  0  0  0  0
 23 24  1  0  0  0  0
 24 25  1  0  0  0  0
 25 26  1  0  0  0  0
 26 27  1  0  0  0  0
 27 28  1  0  0  0  0
 27 29  1  0  0  0  0
 27 30  1  0  0  0  0
 26 31  1  0  0  0  0
 26 32  1  0  0  0  0
 25 33  1  0  0  0  0
 25 34  1  0  0  0  0
 24 35  1  0  0  0  0
 24 36  1  0  0  0  0
 22 37  2  0  0  0  0
 21 38  4  0  0  0  0
 38 39  1  0  0  0  0
 38 40  4  0  0  0  0
 40  1  4  0  0  0  0
 40 41  1  0  0  0  0
  1 42  1  0  0  0  0
M  END
> <CAS>
84-74-2

> <NAME>
DIBUTYL PHTHALATE

> <preferred_name>
Dibutyl phthalate

> <iupac>
dibutyl benzene-1,2-dicarboxylate

> <SMILES>
CCCCOC(=O)c1ccccc1C(=O)OCCCC

> <Canonical_QSARr>
CCCCOC(=O)c1ccccc1C(=O)OCCCC

> <InChI_Code_QSARr>
InChI=1S/C16H22O4/c1-3-5-11-19-15(17)13-9-7-8-10-14(13)16(18)20-12-6-4-2/h7-10H,3-6,11-12H2,1-2H3

> <InChI Key_QSARr>
DOIRQSBPFJWKBE-UHFFFAOYSA-N

> <Salt_Solvent>
?

> <WS Temperature>
25

> <WS Reference>
HOWARD,PH ET AL. (1985)

> <dsstox_substance_id>
DTXSID2021781

> <LogMolar>
-4.3954

$$$$
85-00-7
  -INDIGO-01081615412D

 26 28  0  0  0  0  0  0  0  0999 V2000
    0.8001    1.3857    0.0000 N   0  0  0  1  0  0  0  0  0  0  0  0
    2.4000    1.3857    0.0000 C   0  0  0  0  0  0  0  0  0  0  0  0
    3.2000    0.0000    0.0000 H   0  0  0  0  0  0  0  0  0  0  0  0
    3.2000    2.7713    0.0000 C   0  0  0  0  0  0  0  0  0  0  0  0
    4.8000    2.7713    0.0000 H   0  0  0  0  0  0  0  0  0  0  0  0
    2.4000    4.1569    0.0000 C   0  0  0  0  0  0  0  0  0  0  0  0
    3.2000    5.5426    0.0000 H   0  0  0  0  0  0  0  0  0  0  0  0
    0.8001    4.1569    0.0000 C   0  0  0  0  0  0  0  0  0  0  0  0
    0.0001    5.5426    0.0000 H   0  0  0  0  0  0  0  0  0  0  0  0
    0.0001    2.7713    0.0000 C   0  0  0  0  0  0  0  0  0  0  0  0
   -1.6001    2.7713    0.0000 C   0  0  0  0  0  0  0  0  0  0  0  0
   -2.4001    4.1569    0.0000 C   0  0  0  0  0  0  0  0  0  0  0  0
   -4.0000    4.1569    0.0000 C   0  0  0  0  0  0  0  0  0  0  0  0
   -4.8000    2.7713    0.0000 C   0  0  0  0  0  0  0  0  0  0  0  0
   -4.0000    1.3857    0.0000 C   0  0  0  0  0  0  0  0  0  0  0  0
   -4.8000    0.0000    0.0000 H   0  0  0  0  0  0  0  0  0  0  0  0
   -2.4001    1.3857    0.0000 N   0  0  0  1  0  0  0  0  0  0  0  0
   -1.6001    0.0000    0.0000 C   0  0  0  0  0  0  0  0  0  0  0  0
   -3.1035   -0.5472    0.0000 H   0  0  0  0  0  0  0  0  0  0  0  0
   -1.3222   -1.5757    0.0000 H   0  0  0  0  0  0  0  0  0  0  0  0
    0.0001    0.0000    0.0000 C   0  0  0  0  0  0  0  0  0  0  0  0
   -0.2778   -1.5757    0.0000 H   0  0  0  0  0  0  0  0  0  0  0  0
    1.5035   -0.5472    0.0000 H   0  0  0  0  0  0  0  0  0  0  0  0
   -6.4000    2.7713    0.0000 H   0  0  0  0  0  0  0  0  0  0  0  0
   -4.8000    5.5426    0.0000 H   0  0  0  0  0  0  0  0  0  0  0  0
   -1.6001    5.5426    0.0000 H   0  0  0  0  0  0  0  0  0  0  0  0
  1  2  4  0  0  0  0
  2  3  1  0  0  0  0
  2  4  4  0  0  0  0
  4  5  1  0  0  0  0
  4  6  4  0  0  0  0
  6  7  1  0  0  0  0
  6  8  4  0  0  0  0
  8  9  1  0  0  0  0
  8 10  4  0  0  0  0
 10  1  4  0  0  0  0
 10 11  1  0  0  0  0
 11 12  4  0  0  0  0
 12 13  4  0  0  0  0
 13 14  4  0  0  0  0
 14 15  4  0  0  0  0
 15 16  1  0  0  0  0
 15 17  4  0  0  0  0
 17 11  4  0  0  0  0
 17 18  1  0  0  0  0
 18 19  1  0  0  0  0
 18 20  1  0  0  0  0
 18 21  1  0  0  0  0
 21  1  1  0  0  0  0
 21 22  1  0  0  0  0
 21 23  1  0  0  0  0
 14 24  1  0  0  0  0
 13 25  1  0  0  0  0
 12 26  1  0  0  0  0
M  CHG  2   1   1  17   1
M  END
> <CAS>
85-00-7

> <NAME>
DIQUAT DIBROMIDE

> <preferred_name>
Diquat dibromide

> <iupac>
6,7-dihydrodipyrido[1,2-a:2',1'-c]pyrazinediium dibromide

> <SMILES>
[Br-].[Br-].C1C[n+]2ccccc2-c2cccc[n+]21

> <Canonical_QSARr>
C1C[n+]2ccccc2-c2cccc[n+]21

> <InChI_Code_QSARr>
InChI=1S/C12H12N2/c1-3-7-13-9-10-14-8-4-2-6-12(14)11(13)5-1/h1-8H,9-10H2/q+2

> <InChI Key_QSARr>
SYJFEGQWDCRVNX-UHFFFAOYSA-N

> <Salt_Solvent>
[Br-].[Br-]

> <WS Temperature>
20

> <WS Reference>
SHIU,WY ET AL. (1990)

> <dsstox_substance_id>
DTXSID3024075

> <LogMolar>
0.3133

$$$$
85-01-8
  -INDIGO-01081615412D

 24 26  0  0  0  0  0  0  0  0999 V2000
   -0.0001    0.0000    0.0000 C   0  0  0  0  0  0  0  0  0  0  0  0
   -0.8001    1.3856    0.0000 C   0  0  0  0  0  0  0  0  0  0  0  0
   -0.0001    2.7713    0.0000 H   0  0  0  0  0  0  0  0  0  0  0  0
   -2.4000    1.3856    0.0000 C   0  0  0  0  0  0  0  0  0  0  0  0
   -3.2000    2.7713    0.0000 H   0  0  0  0  0  0  0  0  0  0  0  0
   -3.2000    0.0000    0.0000 C   0  0  0  0  0  0  0  0  0  0  0  0
   -4.8000    0.0000    0.0000 H   0  0  0  0  0  0  0  0  0  0  0  0
   -2.4000   -1.3856    0.0000 C   0  0  0  0  0  0  0  0  0  0  0  0
   -3.2000   -2.7713    0.0000 H   0  0  0  0  0  0  0  0  0  0  0  0
   -0.8001   -1.3856    0.0000 C   0  0  0  0  0  0  0  0  0  0  0  0
   -0.0001   -2.7713    0.0000 C   0  0  0  0  0  0  0  0  0  0  0  0
   -0.8001   -4.1569    0.0000 H   0  0  0  0  0  0  0  0  0  0  0  0
    1.6001   -2.7713    0.0000 C   0  0  0  0  0  0  0  0  0  0  0  0
    2.4001   -4.1569    0.0000 H   0  0  0  0  0  0  0  0  0  0  0  0
    2.4001   -1.3856    0.0000 C   0  0  0  0  0  0  0  0  0  0  0  0
    4.0000   -1.3856    0.0000 C   0  0  0  0  0  0  0  0  0  0  0  0
    4.8000    0.0000    0.0000 C   0  0  0  0  0  0  0  0  0  0  0  0
    4.0000    1.3856    0.0000 C   0  0  0  0  0  0  0  0  0  0  0  0
    2.4001    1.3856    0.0000 C   0  0  0  0  0  0  0  0  0  0  0  0
    1.6001    2.7713    0.0000 H   0  0  0  0  0  0  0  0  0  0  0  0
    1.6001    0.0000    0.0000 C   0  0  0  0  0  0  0  0  0  0  0  0
    4.8000    2.7713    0.0000 H   0  0  0  0  0  0  0  0  0  0  0  0
    6.4000    0.0000    0.0000 H   0  0  0  0  0  0  0  0  0  0  0  0
    4.8000   -2.7713    0.0000 H   0  0  0  0  0  0  0  0  0  0  0  0
  1  2  4  0  0  0  0
  2  3  1  0  0  0  0
  2  4  4  0  0  0  0
  4  5  1  0  0  0  0
  4  6  4  0  0  0  0
  6  7  1  0  0  0  0
  6  8  4  0  0  0  0
  8  9  1  0  0  0  0
  8 10  4  0  0  0  0
 10  1  4  0  0  0  0
 10 11  4  0  0  0  0
 11 12  1  0  0  0  0
 11 13  4  0  0  0  0
 13 14  1  0  0  0  0
 13 15  4  0  0  0  0
 15 16  4  0  0  0  0
 16 17  4  0  0  0  0
 17 18  4  0  0  0  0
 18 19  4  0  0  0  0
 19 20  1  0  0  0  0
 19 21  4  0  0  0  0
 21  1  4  0  0  0  0
 21 15  4  0  0  0  0
 18 22  1  0  0  0  0
 17 23  1  0  0  0  0
 16 24  1  0  0  0  0
M  END
> <CAS>
85-01-8

> <NAME>
PHENANTHRENE

> <preferred_name>
Phenanthrene

> <iupac>
phenanthrenato

> <SMILES>
c1cc2ccccc2c2ccccc21

> <Canonical_QSARr>
c1cc2ccccc2c2ccccc21

> <InChI_Code_QSARr>
InChI=1S/C14H10/c1-3-7-13-11(5-1)9-10-12-6-2-4-8-14(12)13/h1-10H

> <InChI Key_QSARr>
YNPNZTXNASCQKK-UHFFFAOYSA-N

> <Salt_Solvent>
?

> <WS Temperature>
25

> <WS Reference>
SCHWARZ,FP (1977)

> <dsstox_substance_id>
DTXSID6024254

> <LogMolar>
-5.1903

$$$$
85-57-4
  -INDIGO-01081615412D

 28 29  0  0  0  0  0  0  0  0999 V2000
    0.0000    0.0000    0.0000 C   0  0  0  0  0  0  0  0  0  0  0  0
   -1.3856    0.8000    0.0000 C   0  0  0  0  0  0  0  0  0  0  0  0
   -1.3856    2.4000    0.0000 O   0  0  0  0  0  0  0  0  0  0  0  0
   -2.9856    0.8000    0.0000 C   0  0  0  0  0  0  0  0  0  0  0  0
   -3.7857    2.1856    0.0000 C   0  0  0  0  0  0  0  0  0  0  0  0
   -2.9856    3.5713    0.0000 H   0  0  0  0  0  0  0  0  0  0  0  0
   -5.3856    2.1856    0.0000 C   0  0  0  0  0  0  0  0  0  0  0  0
   -6.1857    3.5713    0.0000 H   0  0  0  0  0  0  0  0  0  0  0  0
   -6.1857    0.8000    0.0000 C   0  0  0  0  0  0  0  0  0  0  0  0
   -7.7857    0.8000    0.0000 O   0  0  0  0  0  0  0  0  0  0  0  0
   -8.5856    2.1856    0.0000 H   0  0  0  0  0  0  0  0  0  0  0  0
   -5.3856   -0.5857    0.0000 C   0  0  0  0  0  0  0  0  0  0  0  0
   -6.1857   -1.9713    0.0000 H   0  0  0  0  0  0  0  0  0  0  0  0
   -3.7857   -0.5857    0.0000 C   0  0  0  0  0  0  0  0  0  0  0  0
   -2.9856   -1.9713    0.0000 H   0  0  0  0  0  0  0  0  0  0  0  0
    0.0000   -1.6000    0.0000 C   0  0  0  0  0  0  0  0  0  0  0  0
   -1.3856   -2.4001    0.0000 H   0  0  0  0  0  0  0  0  0  0  0  0
    1.3856   -2.4001    0.0000 C   0  0  0  0  0  0  0  0  0  0  0  0
    1.3856   -4.0000    0.0000 H   0  0  0  0  0  0  0  0  0  0  0  0
    2.7713   -1.6000    0.0000 C   0  0  0  0  0  0  0  0  0  0  0  0
    4.1569   -2.4001    0.0000 H   0  0  0  0  0  0  0  0  0  0  0  0
    2.7713    0.0000    0.0000 C   0  0  0  0  0  0  0  0  0  0  0  0
    4.1569    0.8000    0.0000 H   0  0  0  0  0  0  0  0  0  0  0  0
    1.3856    0.8000    0.0000 C   0  0  0  0  0  0  0  0  0  0  0  0
    1.3856    2.4000    0.0000 C   0  0  0  0  0  0  0  0  0  0  0  0
    0.0000    3.2001    0.0000 O   0  0  0  0  0  0  0  0  0  0  0  0
    2.7713    3.2001    0.0000 O   0  0  0  0  0  0  0  0  0  0  0  0
    2.7713    4.8000    0.0000 H   0  0  0  0  0  0  0  0  0  0  0  0
  1  2  1  0  0  0  0
  2  3  2  0  0  0  0
  2  4  1  0  0  0  0
  4  5  4  0  0  0  0
  5  6  1  0  0  0  0
  5  7  4  0  0  0  0
  7  8  1  0  0  0  0
  7  9  4  0  0  0  0
  9 10  1  0  0  0  0
 10 11  1  0  0  0  0
  9 12  4  0  0  0  0
 12 13  1  0  0  0  0
 12 14  4  0  0  0  0
 14  4  4  0  0  0  0
 14 15  1  0  0  0  0
  1 16  4  0  0  0  0
 16 17  1  0  0  0  0
 16 18  4  0  0  0  0
 18 19  1  0  0  0  0
 18 20  4  0  0  0  0
 20 21  1  0  0  0  0
 20 22  4  0  0  0  0
 22 23  1  0  0  0  0
 22 24  4  0  0  0  0
 24  1  4  0  0  0  0
 24 25  1  0  0  0  0
 25 26  2  0  0  0  0
 25 27  1  0  0  0  0
 27 28  1  0  0  0  0
M  END
> <CAS>
85-57-4

> <NAME>
Benzoic acid, 2-(4-hydroxybenzoyl)-

> <preferred_name>
2-(4-Hydroxybenzoyl)benzoic acid

> <iupac>
2-(4-Hydroxybenzoyl)benzoic acid

> <SMILES>
OC(=O)c1ccccc1C(=O)c1ccc(O)cc1

> <Canonical_QSARr>
OC(=O)c1ccccc1C(=O)c1ccc(O)cc1

> <InChI_Code_QSARr>
InChI=1S/C14H10O4/c15-10-7-5-9(6-8-10)13(16)11-3-1-2-4-12(11)14(17)18/h1-8,15H,(H,17,18)

> <InChI Key_QSARr>
YGTUPRIZNBMOFV-UHFFFAOYSA-N

> <Salt_Solvent>
?

> <WS Temperature>
21

> <WS Reference>
BEILSTEIN

> <dsstox_substance_id>
DTXSID0075360

> <LogMolar>
-2.5835

$$$$
85-74-5
  -INDIGO-01081615412D

 28 29  0  0  0  0  0  0  0  0999 V2000
    3.3570   -2.1857    0.0000 O   0  0  0  0  0  0  0  0  0  0  0  0
    4.1569   -0.8000    0.0000 S   0  0  0  0  0  0  0  0  0  0  0  0
    2.7712    0.0001    0.0000 C   0  0  0  0  0  0  0  0  0  0  0  0
    1.3857   -0.8000    0.0000 C   0  0  0  0  0  0  0  0  0  0  0  0
    1.3857   -2.4000    0.0000 H   0  0  0  0  0  0  0  0  0  0  0  0
    0.0001    0.0001    0.0000 C   0  0  0  0  0  0  0  0  0  0  0  0
   -1.3856   -0.8000    0.0000 C   0  0  0  0  0  0  0  0  0  0  0  0
   -2.7713    0.0001    0.0000 C   0  0  0  0  0  0  0  0  0  0  0  0
   -2.7713    1.6000    0.0000 C   0  0  0  0  0  0  0  0  0  0  0  0
   -1.3856    2.4000    0.0000 C   0  0  0  0  0  0  0  0  0  0  0  0
   -1.3856    4.0000    0.0000 N   0  0  0  0  0  0  0  0  0  0  0  0
   -2.7713    4.8000    0.0000 H   0  0  0  0  0  0  0  0  0  0  0  0
    0.0001    4.8000    0.0000 H   0  0  0  0  0  0  0  0  0  0  0  0
    0.0001    1.6000    0.0000 C   0  0  0  0  0  0  0  0  0  0  0  0
    1.3857    2.4000    0.0000 C   0  0  0  0  0  0  0  0  0  0  0  0
    1.3857    4.0000    0.0000 H   0  0  0  0  0  0  0  0  0  0  0  0
    2.7712    1.6000    0.0000 C   0  0  0  0  0  0  0  0  0  0  0  0
    4.1569    2.4000    0.0000 H   0  0  0  0  0  0  0  0  0  0  0  0
   -4.1569    2.4000    0.0000 H   0  0  0  0  0  0  0  0  0  0  0  0
   -4.1569   -0.8000    0.0000 H   0  0  0  0  0  0  0  0  0  0  0  0
   -1.3856   -2.4000    0.0000 S   0  0  0  0  0  0  0  0  0  0  0  0
   -1.3856   -4.0000    0.0000 O   0  0  0  0  0  0  0  0  0  0  0  0
   -2.7713   -4.8000    0.0000 H   0  0  0  0  0  0  0  0  0  0  0  0
   -2.9856   -2.4000    0.0000 O   0  0  0  0  0  0  0  0  0  0  0  0
    0.2144   -2.4000    0.0000 O   0  0  0  0  0  0  0  0  0  0  0  0
    5.5425   -1.6000    0.0000 O   0  0  0  0  0  0  0  0  0  0  0  0
    6.9282   -0.8000    0.0000 H   0  0  0  0  0  0  0  0  0  0  0  0
    4.9569    0.5856    0.0000 O   0  0  0  0  0  0  0  0  0  0  0  0
  1  2  2  0  0  0  0
  2  3  1  0  0  0  0
  3  4  4  0  0  0  0
  4  5  1  0  0  0  0
  4  6  4  0  0  0  0
  6  7  4  0  0  0  0
  7  8  4  0  0  0  0
  8  9  4  0  0  0  0
  9 10  4  0  0  0  0
 10 11  1  0  0  0  0
 11 12  1  0  0  0  0
 11 13  1  0  0  0  0
 10 14  4  0  0  0  0
 14  6  4  0  0  0  0
 14 15  4  0  0  0  0
 15 16  1  0  0  0  0
 15 17  4  0  0  0  0
 17  3  4  0  0  0  0
 17 18  1  0  0  0  0
  9 19  1  0  0  0  0
  8 20  1  0  0  0  0
  7 21  1  0  0  0  0
 21 22  1  0  0  0  0
 22 23  1  0  0  0  0
 21 24  2  0  0  0  0
 21 25  2  0  0  0  0
  2 26  1  0  0  0  0
 26 27  1  0  0  0  0
  2 28  2  0  0  0  0
M  END
> <CAS>
85-74-5

> <NAME>
2,7-NAPHTHALENEDISULFONIC ACID, 1-AMINO-

> <preferred_name>
1,7-Naphthalenedisulfonic acid, 4-amino-

> <iupac>
4-aminonaphthalene-1,7-disulfonic acid

> <SMILES>
Nc1ccc(c2cc(ccc21)S(O)(=O)=O)S(O)(=O)=O

> <Canonical_QSARr>
Nc1ccc(c2cc(ccc21)S(O)(=O)=O)S(O)(=O)=O

> <InChI_Code_QSARr>
InChI=1S/C10H9NO6S2/c11-9-3-4-10(19(15,16)17)8-5-6(18(12,13)14)1-2-7(8)9/h1-5H,11H2,(H,12,13,14)(H,15,16,17)

> <InChI Key_QSARr>
JSBQMQFABBMNSV-UHFFFAOYSA-N

> <Salt_Solvent>
?

> <WS Temperature>


> <WS Reference>
MERCK INDEX (1996); cold water

> <dsstox_substance_id>
DTXSID1058929

> <LogMolar>
-0.2592

$$$$
86-29-3
  -INDIGO-01081615412D

 26 27  0  0  0  0  0  0  0  0999 V2000
    0.0001   -3.2000    0.0000 N   0  0  0  0  0  0  0  0  0  0  0  0
    0.0001   -1.6000    0.0000 C   0  0  0  0  0  0  0  0  0  0  0  0
    0.0001   -0.0000    0.0000 C   0  0  0  0  0  0  0  0  0  0  0  0
    1.5999   -0.0000    0.0000 C   0  0  0  0  0  0  0  0  0  0  0  0
    2.3999   -1.3856    0.0000 C   0  0  0  0  0  0  0  0  0  0  0  0
    1.5999   -2.7713    0.0000 H   0  0  0  0  0  0  0  0  0  0  0  0
    4.0000   -1.3856    0.0000 C   0  0  0  0  0  0  0  0  0  0  0  0
    4.8000   -2.7713    0.0000 H   0  0  0  0  0  0  0  0  0  0  0  0
    4.8000   -0.0000    0.0000 C   0  0  0  0  0  0  0  0  0  0  0  0
    6.4000   -0.0000    0.0000 H   0  0  0  0  0  0  0  0  0  0  0  0
    4.0000    1.3857    0.0000 C   0  0  0  0  0  0  0  0  0  0  0  0
    4.8000    2.7713    0.0000 H   0  0  0  0  0  0  0  0  0  0  0  0
    2.3999    1.3857    0.0000 C   0  0  0  0  0  0  0  0  0  0  0  0
    1.5999    2.7713    0.0000 H   0  0  0  0  0  0  0  0  0  0  0  0
   -1.5999   -0.0000    0.0000 C   0  0  0  0  0  0  0  0  0  0  0  0
   -2.3999    1.3857    0.0000 C   0  0  0  0  0  0  0  0  0  0  0  0
   -1.5999    2.7713    0.0000 H   0  0  0  0  0  0  0  0  0  0  0  0
   -4.0000    1.3857    0.0000 C   0  0  0  0  0  0  0  0  0  0  0  0
   -4.8000    2.7713    0.0000 H   0  0  0  0  0  0  0  0  0  0  0  0
   -4.8000   -0.0000    0.0000 C   0  0  0  0  0  0  0  0  0  0  0  0
   -6.4000   -0.0000    0.0000 H   0  0  0  0  0  0  0  0  0  0  0  0
   -4.0000   -1.3856    0.0000 C   0  0  0  0  0  0  0  0  0  0  0  0
   -4.8000   -2.7713    0.0000 H   0  0  0  0  0  0  0  0  0  0  0  0
   -2.3999   -1.3856    0.0000 C   0  0  0  0  0  0  0  0  0  0  0  0
   -1.5999   -2.7713    0.0000 H   0  0  0  0  0  0  0  0  0  0  0  0
   -0.0001    1.6000    0.0000 H   0  0  0  0  0  0  0  0  0  0  0  0
  1  2  3  0  0  0  0
  2  3  1  0  0  0  0
  3  4  1  0  0  0  0
  4  5  4  0  0  0  0
  5  6  1  0  0  0  0
  5  7  4  0  0  0  0
  7  8  1  0  0  0  0
  7  9  4  0  0  0  0
  9 10  1  0  0  0  0
  9 11  4  0  0  0  0
 11 12  1  0  0  0  0
 11 13  4  0  0  0  0
 13  4  4  0  0  0  0
 13 14  1  0  0  0  0
  3 15  1  0  0  0  0
 15 16  4  0  0  0  0
 16 17  1  0  0  0  0
 16 18  4  0  0  0  0
 18 19  1  0  0  0  0
 18 20  4  0  0  0  0
 20 21  1  0  0  0  0
 20 22  4  0  0  0  0
 22 23  1  0  0  0  0
 22 24  4  0  0  0  0
 24 15  4  0  0  0  0
 24 25  1  0  0  0  0
  3 26  1  0  0  0  0
M  END
> <CAS>
86-29-3

> <NAME>
DIPHENYLACETONITRILE

> <preferred_name>
Diphenylacetonitrile

> <iupac>
diphenylacetonitrile

> <SMILES>
N#CC(c1ccccc1)c1ccccc1

> <Canonical_QSARr>
N#CC(c1ccccc1)c1ccccc1

> <InChI_Code_QSARr>
InChI=1S/C14H11N/c15-11-14(12-7-3-1-4-8-12)13-9-5-2-6-10-13/h1-10,14H

> <InChI Key_QSARr>
NEBPTMCRLHKPOB-UHFFFAOYSA-N

> <Salt_Solvent>
?

> <WS Temperature>


> <WS Reference>
SHIU,WY ET AL. (1990)

> <dsstox_substance_id>
DTXSID4020539

> <LogMolar>
-2.9437

$$$$
86-59-9
  -INDIGO-01081615412D

 20 21  0  0  0  0  0  0  0  0999 V2000
   -4.8000    2.7713    0.0000 O   0  0  0  0  0  0  0  0  0  0  0  0
   -3.2000    2.7713    0.0000 C   0  0  0  0  0  0  0  0  0  0  0  0
   -2.4000    1.3856    0.0000 C   0  0  0  0  0  0  0  0  0  0  0  0
   -3.2000    0.0000    0.0000 C   0  0  0  0  0  0  0  0  0  0  0  0
   -4.8000    0.0000    0.0000 H   0  0  0  0  0  0  0  0  0  0  0  0
   -2.4000   -1.3856    0.0000 C   0  0  0  0  0  0  0  0  0  0  0  0
   -3.2000   -2.7713    0.0000 H   0  0  0  0  0  0  0  0  0  0  0  0
   -0.7999   -1.3856    0.0000 C   0  0  0  0  0  0  0  0  0  0  0  0
    0.0000   -2.7713    0.0000 H   0  0  0  0  0  0  0  0  0  0  0  0
    0.0000    0.0000    0.0000 C   0  0  0  0  0  0  0  0  0  0  0  0
    1.6000    0.0000    0.0000 C   0  0  0  0  0  0  0  0  0  0  0  0
    2.4001    1.3856    0.0000 C   0  0  0  0  0  0  0  0  0  0  0  0
    1.6000    2.7713    0.0000 C   0  0  0  0  0  0  0  0  0  0  0  0
    0.0000    2.7713    0.0000 N   0  0  0  1  0  0  0  0  0  0  0  0
   -0.7999    1.3856    0.0000 C   0  0  0  0  0  0  0  0  0  0  0  0
    2.4001    4.1569    0.0000 H   0  0  0  0  0  0  0  0  0  0  0  0
    4.0000    1.3856    0.0000 H   0  0  0  0  0  0  0  0  0  0  0  0
    2.4001   -1.3856    0.0000 H   0  0  0  0  0  0  0  0  0  0  0  0
   -2.4000    4.1569    0.0000 O   0  0  0  0  0  0  0  0  0  0  0  0
   -5.6000    4.1569    0.0000 H   0  0  0  0  0  0  0  0  0  0  0  0
  1  2  1  0  0  0  0
  2  3  1  0  0  0  0
  3  4  4  0  0  0  0
  4  5  1  0  0  0  0
  4  6  4  0  0  0  0
  6  7  1  0  0  0  0
  6  8  4  0  0  0  0
  8  9  1  0  0  0  0
  8 10  4  0  0  0  0
 10 11  4  0  0  0  0
 11 12  4  0  0  0  0
 12 13  4  0  0  0  0
 13 14  4  0  0  0  0
 14 15  4  0  0  0  0
 15  3  4  0  0  0  0
 15 10  4  0  0  0  0
 13 16  1  0  0  0  0
 12 17  1  0  0  0  0
 11 18  1  0  0  0  0
  2 19  2  0  0  0  0
  1 20  1  0  0  0  0
M  END
> <CAS>
86-59-9

> <NAME>
8-Quinolinecarboxylic acid

> <preferred_name>
8-Quinolinecarboxylic acid

> <iupac>
Quinoline-8-carboxylic acid

> <SMILES>
OC(=O)c1cccc2ccc[n]c21

> <Canonical_QSARr>
OC(=O)c1cccc2ccc[n]c21

> <InChI_Code_QSARr>
InChI=1S/C10H7NO2/c12-10(13)8-5-1-3-7-4-2-6-11-9(7)8/h1-6H,(H,12,13)

> <InChI Key_QSARr>
QRDZFPUVLYEQTA-UHFFFAOYSA-N

> <Salt_Solvent>
?

> <WS Temperature>
25

> <WS Reference>
BEILSTEIN

> <dsstox_substance_id>
DTXSID40235334

> <LogMolar>
-1.7447

$$$$
86-81-7
  -INDIGO-01081615412D

 26 26  0  0  0  0  0  0  0  0999 V2000
    4.0001    1.3857    0.0000 C   0  0  0  0  0  0  0  0  0  0  0  0
    2.3999    1.3857    0.0000 O   0  0  0  0  0  0  0  0  0  0  0  0
    1.6000    0.0000    0.0000 C   0  0  0  0  0  0  0  0  0  0  0  0
    0.0000    0.0000    0.0000 C   0  0  0  0  0  0  0  0  0  0  0  0
   -0.8000    1.3856    0.0000 O   0  0  0  0  0  0  0  0  0  0  0  0
   -2.4001    1.3856    0.0000 C   0  0  0  0  0  0  0  0  0  0  0  0
   -3.2000    2.7713    0.0000 H   0  0  0  0  0  0  0  0  0  0  0  0
   -4.0000    1.3856    0.0000 H   0  0  0  0  0  0  0  0  0  0  0  0
   -1.5999    2.7713    0.0000 H   0  0  0  0  0  0  0  0  0  0  0  0
   -0.8000   -1.3857    0.0000 C   0  0  0  0  0  0  0  0  0  0  0  0
   -2.4001   -1.3857    0.0000 O   0  0  0  0  0  0  0  0  0  0  0  0
   -3.2000   -2.7713    0.0000 C   0  0  0  0  0  0  0  0  0  0  0  0
   -4.0000   -4.1569    0.0000 H   0  0  0  0  0  0  0  0  0  0  0  0
   -4.8000   -2.7713    0.0000 H   0  0  0  0  0  0  0  0  0  0  0  0
   -2.4001   -4.1569    0.0000 H   0  0  0  0  0  0  0  0  0  0  0  0
    0.0000   -2.7713    0.0000 C   0  0  0  0  0  0  0  0  0  0  0  0
   -0.8000   -4.1569    0.0000 H   0  0  0  0  0  0  0  0  0  0  0  0
    1.6000   -2.7713    0.0000 C   0  0  0  0  0  0  0  0  0  0  0  0
    2.3999   -4.1570    0.0000 C   0  0  0  0  0  0  0  0  0  0  0  0
    4.0001   -4.1570    0.0000 O   0  0  0  0  0  0  0  0  0  0  0  0
    1.6000   -5.5426    0.0000 H   0  0  0  0  0  0  0  0  0  0  0  0
    2.3999   -1.3856    0.0000 C   0  0  0  0  0  0  0  0  0  0  0  0
    4.0001   -1.3856    0.0000 H   0  0  0  0  0  0  0  0  0  0  0  0
    4.8000    2.7713    0.0000 H   0  0  0  0  0  0  0  0  0  0  0  0
    5.6000    1.3857    0.0000 H   0  0  0  0  0  0  0  0  0  0  0  0
    3.2001    2.7713    0.0000 H   0  0  0  0  0  0  0  0  0  0  0  0
  1  2  1  0  0  0  0
  2  3  1  0  0  0  0
  3  4  4  0  0  0  0
  4  5  1  0  0  0  0
  5  6  1  0  0  0  0
  6  7  1  0  0  0  0
  6  8  1  0  0  0  0
  6  9  1  0  0  0  0
  4 10  4  0  0  0  0
 10 11  1  0  0  0  0
 11 12  1  0  0  0  0
 12 13  1  0  0  0  0
 12 14  1  0  0  0  0
 12 15  1  0  0  0  0
 10 16  4  0  0  0  0
 16 17  1  0  0  0  0
 16 18  4  0  0  0  0
 18 19  1  0  0  0  0
 19 20  2  0  0  0  0
 19 21  1  0  0  0  0
 18 22  4  0  0  0  0
 22  3  4  0  0  0  0
 22 23  1  0  0  0  0
  1 24  1  0  0  0  0
  1 25  1  0  0  0  0
  1 26  1  0  0  0  0
M  END
> <CAS>
86-81-7

> <NAME>
Benzaldehyde, 3,4,5-trimethoxy-

> <preferred_name>
Benzaldehyde, 3,4,5-trimethoxy-

> <iupac>
3,4,5-Trimethoxybenzaldehyde

> <SMILES>
COc1c(cc(C=O)cc1OC)OC

> <Canonical_QSARr>
COc1c(cc(C=O)cc1OC)OC

> <InChI_Code_QSARr>
InChI=1S/C10H12O4/c1-12-8-4-7(6-11)5-9(13-2)10(8)14-3/h4-6H,1-3H3

> <InChI Key_QSARr>
OPHQOIGEOHXOGX-UHFFFAOYSA-N

> <Salt_Solvent>
?

> <WS Temperature>
25

> <WS Reference>
JIN,LJ ET AL. (1998)

> <dsstox_substance_id>
DTXSID4058948

> <LogMolar>
-2.1195

$$$$
87-32-1
  -INDIGO-01081615412D

 32 33  0  0  0  0  0  0  0  0999 V2000
   -3.1301    0.6653    0.0000 C   0  0  0  0  0  0  0  0  0  0  0  0
   -1.5651    0.3327    0.0000 C   0  0  0  0  0  0  0  0  0  0  0  0
   -0.0000    0.0000    0.0000 C   0  0  0  0  0  0  0  0  0  0  0  0
    1.4835   -0.5993    0.0000 N   0  0  0  0  0  0  0  0  0  0  0  0
    1.7062   -2.1838    0.0000 C   0  0  0  0  0  0  0  0  0  0  0  0
    3.1896   -2.7832    0.0000 C   0  0  0  0  0  0  0  0  0  0  0  0
    4.6732   -3.3826    0.0000 H   0  0  0  0  0  0  0  0  0  0  0  0
    3.4123   -4.3676    0.0000 H   0  0  0  0  0  0  0  0  0  0  0  0
    4.4504   -1.7981    0.0000 H   0  0  0  0  0  0  0  0  0  0  0  0
    0.4454   -3.1688    0.0000 O   0  0  0  0  0  0  0  0  0  0  0  0
    2.7444    0.3857    0.0000 H   0  0  0  0  0  0  0  0  0  0  0  0
    0.5993    1.4835    0.0000 C   0  0  0  0  0  0  0  0  0  0  0  0
    2.1838    1.7061    0.0000 O   0  0  0  0  0  0  0  0  0  0  0  0
    2.7831    3.1897    0.0000 H   0  0  0  0  0  0  0  0  0  0  0  0
   -0.1517    2.8962    0.0000 O   0  0  0  0  0  0  0  0  0  0  0  0
   -0.5994   -1.4835    0.0000 H   0  0  0  0  0  0  0  0  0  0  0  0
   -1.2324    1.8978    0.0000 H   0  0  0  0  0  0  0  0  0  0  0  0
   -1.8977   -1.2323    0.0000 H   0  0  0  0  0  0  0  0  0  0  0  0
   -4.3191   -0.4053    0.0000 C   0  0  0  0  0  0  0  0  0  0  0  0
   -4.3191   -2.0053    0.0000 C   0  0  0  0  0  0  0  0  0  0  0  0
   -5.7047   -2.8053    0.0000 C   0  0  0  0  0  0  0  0  0  0  0  0
   -7.0904   -2.0053    0.0000 C   0  0  0  0  0  0  0  0  0  0  0  0
   -7.0904   -0.4053    0.0000 C   0  0  0  0  0  0  0  0  0  0  0  0
   -8.4760    0.3948    0.0000 H   0  0  0  0  0  0  0  0  0  0  0  0
   -5.7047    0.3948    0.0000 C   0  0  0  0  0  0  0  0  0  0  0  0
   -5.3721    1.9597    0.0000 N   0  0  0  1  0  0  0  0  0  0  0  0
   -6.4427    3.1487    0.0000 H   0  0  0  0  0  0  0  0  0  0  0  0
   -3.7808    2.1269    0.0000 C   0  0  0  0  0  0  0  0  0  0  0  0
   -2.9808    3.5126    0.0000 H   0  0  0  0  0  0  0  0  0  0  0  0
   -8.4760   -2.8053    0.0000 H   0  0  0  0  0  0  0  0  0  0  0  0
   -5.7047   -4.4053    0.0000 H   0  0  0  0  0  0  0  0  0  0  0  0
   -2.9334   -2.8053    0.0000 H   0  0  0  0  0  0  0  0  0  0  0  0
  1  2  1  0  0  0  0
  2  3  1  0  0  0  0
  3  4  1  0  0  0  0
  4  5  1  0  0  0  0
  5  6  1  0  0  0  0
  6  7  1  0  0  0  0
  6  8  1  0  0  0  0
  6  9  1  0  0  0  0
  5 10  2  0  0  0  0
  4 11  1  0  0  0  0
  3 12  1  0  0  0  0
 12 13  1  0  0  0  0
 13 14  1  0  0  0  0
 12 15  2  0  0  0  0
  3 16  1  0  0  0  0
  2 17  1  0  0  0  0
  2 18  1  0  0  0  0
  1 19  4  0  0  0  0
 19 20  4  0  0  0  0
 20 21  4  0  0  0  0
 21 22  4  0  0  0  0
 22 23  4  0  0  0  0
 23 24  1  0  0  0  0
 23 25  4  0  0  0  0
 25 19  4  0  0  0  0
 25 26  4  0  0  0  0
 26 27  1  0  0  0  0
 26 28  4  0  0  0  0
 28  1  4  0  0  0  0
 28 29  1  0  0  0  0
 22 30  1  0  0  0  0
 21 31  1  0  0  0  0
 20 32  1  0  0  0  0
M  END
> <CAS>
87-32-1

> <NAME>
N-acetyl-DL-tryptophan

> <preferred_name>


> <iupac>


> <SMILES>
CC(=O)N[C@@H](Cc1c[nH]c2ccccc21)C(O)=O

> <Canonical_QSARr>
CC(=O)NC(Cc1c[nH]c2ccccc21)C(O)=O

> <InChI_Code_QSARr>
InChI=1S/C13H14N2O3/c1-8(16)15-12(13(17)18)6-9-7-14-11-5-3-2-4-10(9)11/h2-5,7,12,14H,6H2,1H3,(H,15,16)(H,17,18)

> <InChI Key_QSARr>
DZTHIGRZJZPRDV-UHFFFAOYSA-N

> <Salt_Solvent>
?

> <WS Temperature>
21

> <WS Reference>
BEILSTEIN

> <dsstox_substance_id>


> <LogMolar>
-2.3122

$$$$
87-47-8
  -INDIGO-01081615412D

 33 34  0  0  0  0  0  0  0  0999 V2000
    1.5913    0.1673    0.0000 C   0  0  0  0  0  0  0  0  0  0  0  0
    1.9239    1.7323    0.0000 C   0  0  0  0  0  0  0  0  0  0  0  0
    3.3856    2.3830    0.0000 H   0  0  0  0  0  0  0  0  0  0  0  0
    0.5383    2.5323    0.0000 C   0  0  0  0  0  0  0  0  0  0  0  0
    0.3709    4.1236    0.0000 C   0  0  0  0  0  0  0  0  0  0  0  0
    0.2038    5.7148    0.0000 H   0  0  0  0  0  0  0  0  0  0  0  0
   -1.0906    4.7743    0.0000 H   0  0  0  0  0  0  0  0  0  0  0  0
    1.6655    5.0639    0.0000 H   0  0  0  0  0  0  0  0  0  0  0  0
   -0.6508    1.4618    0.0000 N   0  0  0  1  0  0  0  0  0  0  0  0
   -0.0001   -0.0001    0.0000 N   0  0  0  1  0  0  0  0  0  0  0  0
   -0.7999   -1.3856    0.0000 C   0  0  0  0  0  0  0  0  0  0  0  0
   -2.3999   -1.3856    0.0000 C   0  0  0  0  0  0  0  0  0  0  0  0
   -3.2000   -0.0001    0.0000 H   0  0  0  0  0  0  0  0  0  0  0  0
   -3.2000   -2.7713    0.0000 C   0  0  0  0  0  0  0  0  0  0  0  0
   -4.8000   -2.7713    0.0000 H   0  0  0  0  0  0  0  0  0  0  0  0
   -2.3999   -4.1568    0.0000 C   0  0  0  0  0  0  0  0  0  0  0  0
   -3.2000   -5.5426    0.0000 H   0  0  0  0  0  0  0  0  0  0  0  0
   -0.7999   -4.1568    0.0000 C   0  0  0  0  0  0  0  0  0  0  0  0
   -0.0001   -5.5426    0.0000 H   0  0  0  0  0  0  0  0  0  0  0  0
   -0.0001   -2.7713    0.0000 C   0  0  0  0  0  0  0  0  0  0  0  0
    1.5999   -2.7713    0.0000 H   0  0  0  0  0  0  0  0  0  0  0  0
    2.6618   -1.0218    0.0000 O   0  0  0  0  0  0  0  0  0  0  0  0
    4.2269   -0.6890    0.0000 C   0  0  0  0  0  0  0  0  0  0  0  0
    4.7214    0.8325    0.0000 O   0  0  0  0  0  0  0  0  0  0  0  0
    5.2974   -1.8781    0.0000 N   0  0  0  0  0  0  0  0  0  0  0  0
    6.8625   -1.5455    0.0000 C   0  0  0  0  0  0  0  0  0  0  0  0
    8.4276   -1.2128    0.0000 H   0  0  0  0  0  0  0  0  0  0  0  0
    7.9331   -2.7345    0.0000 H   0  0  0  0  0  0  0  0  0  0  0  0
    7.3570   -0.0238    0.0000 H   0  0  0  0  0  0  0  0  0  0  0  0
    4.8031   -3.3998    0.0000 C   0  0  0  0  0  0  0  0  0  0  0  0
    4.3086   -4.9216    0.0000 H   0  0  0  0  0  0  0  0  0  0  0  0
    5.8737   -4.5889    0.0000 H   0  0  0  0  0  0  0  0  0  0  0  0
    3.2381   -3.7326    0.0000 H   0  0  0  0  0  0  0  0  0  0  0  0
  1  2  4  0  0  0  0
  2  3  1  0  0  0  0
  2  4  4  0  0  0  0
  4  5  1  0  0  0  0
  5  6  1  0  0  0  0
  5  7  1  0  0  0  0
  5  8  1  0  0  0  0
  4  9  4  0  0  0  0
  9 10  4  0  0  0  0
 10  1  4  0  0  0  0
 10 11  1  0  0  0  0
 11 12  4  0  0  0  0
 12 13  1  0  0  0  0
 12 14  4  0  0  0  0
 14 15  1  0  0  0  0
 14 16  4  0  0  0  0
 16 17  1  0  0  0  0
 16 18  4  0  0  0  0
 18 19  1  0  0  0  0
 18 20  4  0  0  0  0
 20 11  4  0  0  0  0
 20 21  1  0  0  0  0
  1 22  1  0  0  0  0
 22 23  1  0  0  0  0
 23 24  2  0  0  0  0
 23 25  1  0  0  0  0
 25 26  1  0  0  0  0
 26 27  1  0  0  0  0
 26 28  1  0  0  0  0
 26 29  1  0  0  0  0
 25 30  1  0  0  0  0
 30 31  1  0  0  0  0
 30 32  1  0  0  0  0
 30 33  1  0  0  0  0
M  END
> <CAS>
87-47-8

> <NAME>
PYROLAN

> <preferred_name>
Pyrolan

> <iupac>
3-methyl-1-phenyl-1H-pyrazol-5-yl dimethylcarbamate

> <SMILES>
CN(C)C(=O)Oc1cc(C)[n][n]1-c1ccccc1

> <Canonical_QSARr>
CN(C)C(=O)Oc1cc(C)[n][n]1-c1ccccc1

> <InChI_Code_QSARr>
InChI=1S/C13H15N3O2/c1-10-9-12(18-13(17)15(2)3)16(14-10)11-7-5-4-6-8-11/h4-9H,1-3H3

> <InChI Key_QSARr>
GEDIWDLJKRKBFT-UHFFFAOYSA-N

> <Salt_Solvent>
?

> <WS Temperature>


> <WS Reference>
YALKOWSKY,SH & DANNENFELSER,RM (1992)

> <dsstox_substance_id>
DTXSID6042361

> <LogMolar>
-2.0886

$$$$
87-64-9
  -INDIGO-01081615412D

 16 16  0  0  0  0  0  0  0  0999 V2000
    0.0000    1.6000    0.0000 C   0  0  0  0  0  0  0  0  0  0  0  0
    1.3856    2.4000    0.0000 O   0  0  0  0  0  0  0  0  0  0  0  0
    1.3856    4.0000    0.0000 H   0  0  0  0  0  0  0  0  0  0  0  0
   -1.3856    2.4000    0.0000 C   0  0  0  0  0  0  0  0  0  0  0  0
   -1.3856    4.0000    0.0000 Cl  0  0  0  0  0  0  0  0  0  0  0  0
   -2.7713    1.6000    0.0000 C   0  0  0  0  0  0  0  0  0  0  0  0
   -4.1569    2.4000    0.0000 H   0  0  0  0  0  0  0  0  0  0  0  0
   -2.7713    0.0000    0.0000 C   0  0  0  0  0  0  0  0  0  0  0  0
   -4.1569   -0.8000    0.0000 H   0  0  0  0  0  0  0  0  0  0  0  0
   -1.3856   -0.8000    0.0000 C   0  0  0  0  0  0  0  0  0  0  0  0
   -1.3856   -2.4000    0.0000 H   0  0  0  0  0  0  0  0  0  0  0  0
    0.0000    0.0000    0.0000 C   0  0  0  0  0  0  0  0  0  0  0  0
    1.3856   -0.8000    0.0000 C   0  0  0  0  0  0  0  0  0  0  0  0
    2.7713   -1.6000    0.0000 H   0  0  0  0  0  0  0  0  0  0  0  0
    1.3856   -2.4000    0.0000 H   0  0  0  0  0  0  0  0  0  0  0  0
    2.7713    0.0000    0.0000 H   0  0  0  0  0  0  0  0  0  0  0  0
  1  2  1  0  0  0  0
  2  3  1  0  0  0  0
  1  4  4  0  0  0  0
  4  5  1  0  0  0  0
  4  6  4  0  0  0  0
  6  7  1  0  0  0  0
  6  8  4  0  0  0  0
  8  9  1  0  0  0  0
  8 10  4  0  0  0  0
 10 11  1  0  0  0  0
 10 12  4  0  0  0  0
 12  1  4  0  0  0  0
 12 13  1  0  0  0  0
 13 14  1  0  0  0  0
 13 15  1  0  0  0  0
 13 16  1  0  0  0  0
M  END
> <CAS>
87-64-9

> <NAME>
2-METHYL-6-CHLOROPHENOL

> <preferred_name>
6-Chloro-o-cresol

> <iupac>
2-Chloro-6-methylphenol

> <SMILES>
Cc1cccc(Cl)c1O

> <Canonical_QSARr>
Cc1cccc(Cl)c1O

> <InChI_Code_QSARr>
InChI=1S/C7H7ClO/c1-5-3-2-4-6(8)7(5)9/h2-4,9H,1H3

> <InChI Key_QSARr>
YPNZJHFXFVLXSE-UHFFFAOYSA-N

> <Salt_Solvent>
?

> <WS Temperature>
25

> <WS Reference>
BEILSTEIN

> <dsstox_substance_id>
DTXSID0075362

> <LogMolar>
-0.7739

$$$$
87-69-4, 133-37-9, 147-71-7, 147-73-9, 526-83-0
  -INDIGO-01081615412D

 16 15  0  0  0  0  0  0  0  0999 V2000
   -0.0000    0.0000    0.0000 C   0  0  0  0  0  0  0  0  0  0  0  0
   -0.0000    1.6000    0.0000 O   0  0  0  0  0  0  0  0  0  0  0  0
   -1.3857    2.4000    0.0000 H   0  0  0  0  0  0  0  0  0  0  0  0
   -1.6000   -0.0000    0.0000 C   0  0  0  0  0  0  0  0  0  0  0  0
   -2.3999   -1.3857    0.0000 O   0  0  0  0  0  0  0  0  0  0  0  0
   -4.0000   -1.3857    0.0000 H   0  0  0  0  0  0  0  0  0  0  0  0
   -2.4001    1.3857    0.0000 O   0  0  0  0  0  0  0  0  0  0  0  0
    1.6000    0.0000    0.0000 C   0  0  0  0  0  0  0  0  0  0  0  0
    1.6000   -1.6000    0.0000 O   0  0  0  0  0  0  0  0  0  0  0  0
    2.9857   -2.4000    0.0000 H   0  0  0  0  0  0  0  0  0  0  0  0
    3.2000    0.0000    0.0000 C   0  0  0  0  0  0  0  0  0  0  0  0
    4.0001    1.3857    0.0000 O   0  0  0  0  0  0  0  0  0  0  0  0
    5.6000    1.3857    0.0000 H   0  0  0  0  0  0  0  0  0  0  0  0
    4.0001   -1.3857    0.0000 O   0  0  0  0  0  0  0  0  0  0  0  0
    1.6000    1.6000    0.0000 H   0  0  0  0  0  0  0  0  0  0  0  0
   -0.0000   -1.6000    0.0000 H   0  0  0  0  0  0  0  0  0  0  0  0
  1  2  1  0  0  0  0
  2  3  1  0  0  0  0
  1  4  1  0  0  0  0
  4  5  1  0  0  0  0
  5  6  1  0  0  0  0
  4  7  2  0  0  0  0
  1  8  1  0  0  0  0
  8  9  1  0  0  0  0
  9 10  1  0  0  0  0
  8 11  1  0  0  0  0
 11 12  1  0  0  0  0
 12 13  1  0  0  0  0
 11 14  2  0  0  0  0
  8 15  1  0  0  0  0
  1 16  1  0  0  0  0
M  END
> <CAS>
87-69-4, 133-37-9, 147-71-7, 147-73-9, 526-83-0

> <NAME>
TARTARIC ACID, DL-TARTARIC ACID, D-TARTARIC ACID, meso-TARTARIC ACID, Butanedioic acid, 2,3-dihydroxy-

> <preferred_name>
L-Tartaric acid

> <iupac>
(2R,3R)-2,3-dihydroxybutanedioic acid

> <SMILES>
OC(=O)[C@H](O)[C@@H](O)C(O)=O

> <Canonical_QSARr>
OC(=O)C(O)C(O)C(O)=O

> <InChI_Code_QSARr>
InChI=1S/C4H6O6/c5-1(3(7)8)2(6)4(9)10/h1-2,5-6H,(H,7,8)(H,9,10)

> <InChI Key_QSARr>
FEWJPZIEWOKRBE-UHFFFAOYSA-N

> <Salt_Solvent>
?

> <WS Temperature>
23

> <WS Reference>
YALKOWSKY,SH & DANNENFELSER,RM (1992)

> <dsstox_substance_id>
DTXSID8023632

> <LogMolar>
0.47098

$$$$
87-86-5
  -INDIGO-01081615412D

 13 13  0  0  0  0  0  0  0  0999 V2000
    1.6000    0.0000    0.0000 O   0  0  0  0  0  0  0  0  0  0  0  0
    0.0000   -0.0000    0.0000 C   0  0  0  0  0  0  0  0  0  0  0  0
   -0.8000    1.3856    0.0000 C   0  0  0  0  0  0  0  0  0  0  0  0
    0.0000    2.7713    0.0000 Cl  0  0  0  0  0  0  0  0  0  0  0  0
   -2.4000    1.3856    0.0000 C   0  0  0  0  0  0  0  0  0  0  0  0
   -3.2000    2.7713    0.0000 Cl  0  0  0  0  0  0  0  0  0  0  0  0
   -3.2000   -0.0000    0.0000 C   0  0  0  0  0  0  0  0  0  0  0  0
   -4.8000   -0.0000    0.0000 Cl  0  0  0  0  0  0  0  0  0  0  0  0
   -2.4000   -1.3856    0.0000 C   0  0  0  0  0  0  0  0  0  0  0  0
   -3.2000   -2.7713    0.0000 Cl  0  0  0  0  0  0  0  0  0  0  0  0
   -0.8000   -1.3856    0.0000 C   0  0  0  0  0  0  0  0  0  0  0  0
    0.0000   -2.7713    0.0000 Cl  0  0  0  0  0  0  0  0  0  0  0  0
    2.4000   -1.3856    0.0000 H   0  0  0  0  0  0  0  0  0  0  0  0
  1  2  1  0  0  0  0
  2  3  4  0  0  0  0
  3  4  1  0  0  0  0
  3  5  4  0  0  0  0
  5  6  1  0  0  0  0
  5  7  4  0  0  0  0
  7  8  1  0  0  0  0
  7  9  4  0  0  0  0
  9 10  1  0  0  0  0
  9 11  4  0  0  0  0
 11  2  4  0  0  0  0
 11 12  1  0  0  0  0
  1 13  1  0  0  0  0
M  END
> <CAS>
87-86-5

> <NAME>
PENTACHLOROPHENOL

> <preferred_name>
Pentachlorophenol

> <iupac>
pentachlorophenol

> <SMILES>
Oc1c(Cl)c(Cl)c(Cl)c(Cl)c1Cl

> <Canonical_QSARr>
Oc1c(Cl)c(Cl)c(Cl)c(Cl)c1Cl

> <InChI_Code_QSARr>
InChI=1S/C6HCl5O/c7-1-2(8)4(10)6(12)5(11)3(1)9/h12H

> <InChI Key_QSARr>
IZUPBVBPLAPZRR-UHFFFAOYSA-N

> <Salt_Solvent>
?

> <WS Temperature>
25

> <WS Reference>
YALKOWSKY,SH & HE,Y (2003)

> <dsstox_substance_id>
DTXSID7021106

> <LogMolar>
-4.2793

$$$$
87-99-0
  -INDIGO-01081615412D

 22 21  0  0  0  0  0  0  0  0999 V2000
    3.1757    0.2778    0.0000 C   0  0  0  0  0  0  0  0  0  0  0  0
    4.7514    0.5557    0.0000 O   0  0  0  0  0  0  0  0  0  0  0  0
    5.2986    2.0592    0.0000 H   0  0  0  0  0  0  0  0  0  0  0  0
    1.6001   -0.0000    0.0000 C   0  0  0  0  0  0  0  0  0  0  0  0
    1.6001   -1.6000    0.0000 O   0  0  0  0  0  0  0  0  0  0  0  0
    2.9856   -2.4000    0.0000 H   0  0  0  0  0  0  0  0  0  0  0  0
    0.0000   -0.0000    0.0000 C   0  0  0  0  0  0  0  0  0  0  0  0
    0.0000    1.6000    0.0000 O   0  0  0  0  0  0  0  0  0  0  0  0
   -1.3857    2.4000    0.0000 H   0  0  0  0  0  0  0  0  0  0  0  0
   -1.5758   -0.2779    0.0000 C   0  0  0  0  0  0  0  0  0  0  0  0
   -1.2978   -1.8535    0.0000 O   0  0  0  0  0  0  0  0  0  0  0  0
   -2.3264   -3.0792    0.0000 H   0  0  0  0  0  0  0  0  0  0  0  0
   -3.1514   -0.5557    0.0000 C   0  0  0  0  0  0  0  0  0  0  0  0
   -4.7271   -0.8335    0.0000 O   0  0  0  0  0  0  0  0  0  0  0  0
   -5.7555    0.3922    0.0000 H   0  0  0  0  0  0  0  0  0  0  0  0
   -3.1514   -2.1557    0.0000 H   0  0  0  0  0  0  0  0  0  0  0  0
   -3.4292    1.0200    0.0000 H   0  0  0  0  0  0  0  0  0  0  0  0
   -1.8536    1.2979    0.0000 H   0  0  0  0  0  0  0  0  0  0  0  0
    0.0000   -1.6000    0.0000 H   0  0  0  0  0  0  0  0  0  0  0  0
    1.6001    1.6000    0.0000 H   0  0  0  0  0  0  0  0  0  0  0  0
    2.8979    1.8535    0.0000 H   0  0  0  0  0  0  0  0  0  0  0  0
    3.4535   -1.2979    0.0000 H   0  0  0  0  0  0  0  0  0  0  0  0
  1  2  1  0  0  0  0
  2  3  1  0  0  0  0
  1  4  1  0  0  0  0
  4  5  1  0  0  0  0
  5  6  1  0  0  0  0
  4  7  1  0  0  0  0
  7  8  1  0  0  0  0
  8  9  1  0  0  0  0
  7 10  1  0  0  0  0
 10 11  1  0  0  0  0
 11 12  1  0  0  0  0
 10 13  1  0  0  0  0
 13 14  1  0  0  0  0
 14 15  1  0  0  0  0
 13 16  1  0  0  0  0
 13 17  1  0  0  0  0
 10 18  1  0  0  0  0
  7 19  1  0  0  0  0
  4 20  1  0  0  0  0
  1 21  1  0  0  0  0
  1 22  1  0  0  0  0
M  END
> <CAS>
87-99-0

> <NAME>
Xylitol

> <preferred_name>
Xylitol

> <iupac>
D-xylitol

> <SMILES>
O[C@H]([C@@H](O)CO)[C@H](O)CO

> <Canonical_QSARr>
OC(C(O)CO)C(O)CO

> <InChI_Code_QSARr>
InChI=1S/C5H12O5/c6-1-3(8)5(10)4(9)2-7/h3-10H,1-2H2

> <InChI Key_QSARr>
HEBKCHPVOIAQTA-UHFFFAOYSA-N

> <Salt_Solvent>
?

> <WS Temperature>


> <WS Reference>
MERCK INDEX (1996)

> <dsstox_substance_id>
DTXSID7042514

> <LogMolar>
0.6253

$$$$
88-13-1
  -INDIGO-01081615412D

 12 12  0  0  0  0  0  0  0  0999 V2000
   -1.0530    2.3650    0.0000 S   0  0  0  1  0  0  0  0  0  0  0  0
   -2.2420    1.2944    0.0000 C   0  0  0  0  0  0  0  0  0  0  0  0
   -3.8070    1.6271    0.0000 H   0  0  0  0  0  0  0  0  0  0  0  0
   -1.5912   -0.1672    0.0000 C   0  0  0  0  0  0  0  0  0  0  0  0
   -2.3913   -1.5529    0.0000 H   0  0  0  0  0  0  0  0  0  0  0  0
   -0.0000   -0.0000    0.0000 C   0  0  0  0  0  0  0  0  0  0  0  0
    1.0707   -1.1890    0.0000 C   0  0  0  0  0  0  0  0  0  0  0  0
    0.5762   -2.7107    0.0000 O   0  0  0  0  0  0  0  0  0  0  0  0
    2.6357   -0.8564    0.0000 O   0  0  0  0  0  0  0  0  0  0  0  0
    3.7063   -2.0454    0.0000 H   0  0  0  0  0  0  0  0  0  0  0  0
    0.3327    1.5650    0.0000 C   0  0  0  0  0  0  0  0  0  0  0  0
    1.7943    2.2158    0.0000 H   0  0  0  0  0  0  0  0  0  0  0  0
  1  2  4  0  0  0  0
  2  3  1  0  0  0  0
  2  4  4  0  0  0  0
  4  5  1  0  0  0  0
  4  6  4  0  0  0  0
  6  7  1  0  0  0  0
  7  8  2  0  0  0  0
  7  9  1  0  0  0  0
  9 10  1  0  0  0  0
  6 11  4  0  0  0  0
 11  1  4  0  0  0  0
 11 12  1  0  0  0  0
M  END
> <CAS>
88-13-1

> <NAME>
THIOPHENE-3-CARBOXYLIC ACID

> <preferred_name>
3-Thiophenecarboxylic acid

> <iupac>
thiophene-3-carboxylic acid

> <SMILES>
OC(=O)c1cc[s]c1

> <Canonical_QSARr>
OC(=O)c1cc[s]c1

> <InChI_Code_QSARr>
InChI=1S/C5H4O2S/c6-5(7)4-1-2-8-3-4/h1-3H,(H,6,7)

> <InChI Key_QSARr>
YNVOMSDITJMNET-UHFFFAOYSA-N

> <Salt_Solvent>
?

> <WS Temperature>
25

> <WS Reference>
YALKOWSKY,SH & DANNENFELSER,RM (1992)

> <dsstox_substance_id>
DTXSID40236745

> <LogMolar>
-1.4743

$$$$
88-19-7
  -INDIGO-01081615412D

 20 20  0  0  0  0  0  0  0  0999 V2000
   -0.0000    2.7713    0.0000 C   0  0  0  0  0  0  0  0  0  0  0  0
   -0.8000    1.3856    0.0000 C   0  0  0  0  0  0  0  0  0  0  0  0
   -2.4000    1.3856    0.0000 C   0  0  0  0  0  0  0  0  0  0  0  0
   -3.2001    2.7713    0.0000 H   0  0  0  0  0  0  0  0  0  0  0  0
   -3.2001    0.0000    0.0000 C   0  0  0  0  0  0  0  0  0  0  0  0
   -4.8000    0.0000    0.0000 H   0  0  0  0  0  0  0  0  0  0  0  0
   -2.4000   -1.3856    0.0000 C   0  0  0  0  0  0  0  0  0  0  0  0
   -3.2001   -2.7713    0.0000 H   0  0  0  0  0  0  0  0  0  0  0  0
   -0.8000   -1.3856    0.0000 C   0  0  0  0  0  0  0  0  0  0  0  0
   -0.0000   -2.7713    0.0000 H   0  0  0  0  0  0  0  0  0  0  0  0
   -0.0000    0.0000    0.0000 C   0  0  0  0  0  0  0  0  0  0  0  0
    1.6000    0.0000    0.0000 S   0  0  0  0  0  0  0  0  0  0  0  0
    3.2000    0.0000    0.0000 N   0  0  0  0  0  0  0  0  0  0  0  0
    4.0000   -1.3856    0.0000 H   0  0  0  0  0  0  0  0  0  0  0  0
    4.0000    1.3856    0.0000 H   0  0  0  0  0  0  0  0  0  0  0  0
    1.6000   -1.6000    0.0000 O   0  0  0  0  0  0  0  0  0  0  0  0
    1.6000    1.6000    0.0000 O   0  0  0  0  0  0  0  0  0  0  0  0
    0.8000    4.1569    0.0000 H   0  0  0  0  0  0  0  0  0  0  0  0
   -0.8000    4.1569    0.0000 H   0  0  0  0  0  0  0  0  0  0  0  0
    1.6000    2.7713    0.0000 H   0  0  0  0  0  0  0  0  0  0  0  0
  1  2  1  0  0  0  0
  2  3  4  0  0  0  0
  3  4  1  0  0  0  0
  3  5  4  0  0  0  0
  5  6  1  0  0  0  0
  5  7  4  0  0  0  0
  7  8  1  0  0  0  0
  7  9  4  0  0  0  0
  9 10  1  0  0  0  0
  9 11  4  0  0  0  0
 11  2  4  0  0  0  0
 11 12  1  0  0  0  0
 12 13  1  0  0  0  0
 13 14  1  0  0  0  0
 13 15  1  0  0  0  0
 12 16  2  0  0  0  0
 12 17  2  0  0  0  0
  1 18  1  0  0  0  0
  1 19  1  0  0  0  0
  1 20  1  0  0  0  0
M  END
> <CAS>
88-19-7

> <NAME>
O-METHYLBENZENESULFONAMIDE

> <preferred_name>
o-Toluenesulfonamide

> <iupac>
2-methylbenzenesulfonamide

> <SMILES>
Cc1ccccc1S(N)(=O)=O

> <Canonical_QSARr>
Cc1ccccc1S(N)(=O)=O

> <InChI_Code_QSARr>
InChI=1S/C7H9NO2S/c1-6-4-2-3-5-7(6)11(8,9)10/h2-5H,1H3,(H2,8,9,10)

> <InChI Key_QSARr>
YCMLQMDWSXFTIF-UHFFFAOYSA-N

> <Salt_Solvent>
?

> <WS Temperature>
25

> <WS Reference>
YALKOWSKY,SH & DANNENFELSER,RM (1992)

> <dsstox_substance_id>
DTXSID7021362

> <LogMolar>
-2.024

$$$$
88-75-5
  -INDIGO-01081615412D

 15 15  0  0  0  0  0  0  0  0999 V2000
    1.3856    2.4000    0.0000 O   0  0  0  0  0  0  0  0  0  0  0  0
    0.0000    1.6000    0.0000 C   0  0  0  0  0  0  0  0  0  0  0  0
   -1.3856    2.4000    0.0000 C   0  0  0  0  0  0  0  0  0  0  0  0
   -1.3856    4.0000    0.0000 H   0  0  0  0  0  0  0  0  0  0  0  0
   -2.7713    1.6000    0.0000 C   0  0  0  0  0  0  0  0  0  0  0  0
   -4.1569    2.4000    0.0000 H   0  0  0  0  0  0  0  0  0  0  0  0
   -2.7713    0.0000    0.0000 C   0  0  0  0  0  0  0  0  0  0  0  0
   -4.1569   -0.8000    0.0000 H   0  0  0  0  0  0  0  0  0  0  0  0
   -1.3856   -0.8000    0.0000 C   0  0  0  0  0  0  0  0  0  0  0  0
   -1.3856   -2.4000    0.0000 H   0  0  0  0  0  0  0  0  0  0  0  0
    0.0000    0.0000    0.0000 C   0  0  0  0  0  0  0  0  0  0  0  0
    1.3856   -0.8000    0.0000 N   0  0  0  0  0  0  0  0  0  0  0  0
    1.3856   -2.4000    0.0000 O   0  0  0  0  0  0  0  0  0  0  0  0
    2.7713    0.0000    0.0000 O   0  0  0  0  0  0  0  0  0  0  0  0
    1.3856    4.0000    0.0000 H   0  0  0  0  0  0  0  0  0  0  0  0
  1  2  1  0  0  0  0
  2  3  4  0  0  0  0
  3  4  1  0  0  0  0
  3  5  4  0  0  0  0
  5  6  1  0  0  0  0
  5  7  4  0  0  0  0
  7  8  1  0  0  0  0
  7  9  4  0  0  0  0
  9 10  1  0  0  0  0
  9 11  4  0  0  0  0
 11  2  4  0  0  0  0
 11 12  1  0  0  0  0
 12 13  2  0  0  0  0
 12 14  1  0  0  0  0
  1 15  1  0  0  0  0
M  CHG  2  12   1  14  -1
M  END
> <CAS>
88-75-5

> <NAME>
2-NITROPHENOL

> <preferred_name>
2-Nitrophenol

> <iupac>
2-nitrophenol

> <SMILES>
[O-][N+](=O)c1ccccc1O

> <Canonical_QSARr>
[O-][N+](=O)c1ccccc1O

> <InChI_Code_QSARr>
InChI=1S/C6H5NO3/c8-6-4-2-1-3-5(6)7(9)10/h1-4,8H

> <InChI Key_QSARr>
IQUPABOKLQSFBK-UHFFFAOYSA-N

> <Salt_Solvent>
?

> <WS Temperature>
25

> <WS Reference>
YALKOWSKY,SH & DANNENFELSER,RM (1992)

> <dsstox_substance_id>
DTXSID1021790

> <LogMolar>
-1.7454

$$$$
88-96-0
  -INDIGO-01081615412D

 20 20  0  0  0  0  0  0  0  0999 V2000
   -2.3999    1.3856    0.0000 N   0  0  0  0  0  0  0  0  0  0  0  0
   -0.7999    1.3856    0.0000 C   0  0  0  0  0  0  0  0  0  0  0  0
   -0.0000    0.0000    0.0000 C   0  0  0  0  0  0  0  0  0  0  0  0
   -0.7999   -1.3856    0.0000 C   0  0  0  0  0  0  0  0  0  0  0  0
   -2.3999   -1.3856    0.0000 H   0  0  0  0  0  0  0  0  0  0  0  0
   -0.0000   -2.7713    0.0000 C   0  0  0  0  0  0  0  0  0  0  0  0
   -0.7999   -4.1569    0.0000 H   0  0  0  0  0  0  0  0  0  0  0  0
    1.6000   -2.7713    0.0000 C   0  0  0  0  0  0  0  0  0  0  0  0
    2.4001   -4.1569    0.0000 H   0  0  0  0  0  0  0  0  0  0  0  0
    2.4001   -1.3856    0.0000 C   0  0  0  0  0  0  0  0  0  0  0  0
    4.0001   -1.3856    0.0000 H   0  0  0  0  0  0  0  0  0  0  0  0
    1.6000    0.0000    0.0000 C   0  0  0  0  0  0  0  0  0  0  0  0
    2.4001    1.3856    0.0000 C   0  0  0  0  0  0  0  0  0  0  0  0
    4.0001    1.3856    0.0000 N   0  0  0  0  0  0  0  0  0  0  0  0
    4.8000    2.7713    0.0000 H   0  0  0  0  0  0  0  0  0  0  0  0
    4.8000    0.0000    0.0000 H   0  0  0  0  0  0  0  0  0  0  0  0
    1.6000    2.7713    0.0000 O   0  0  0  0  0  0  0  0  0  0  0  0
   -0.0000    2.7713    0.0000 O   0  0  0  0  0  0  0  0  0  0  0  0
   -3.2000    2.7713    0.0000 H   0  0  0  0  0  0  0  0  0  0  0  0
   -3.2000    0.0000    0.0000 H   0  0  0  0  0  0  0  0  0  0  0  0
  1  2  1  0  0  0  0
  2  3  1  0  0  0  0
  3  4  4  0  0  0  0
  4  5  1  0  0  0  0
  4  6  4  0  0  0  0
  6  7  1  0  0  0  0
  6  8  4  0  0  0  0
  8  9  1  0  0  0  0
  8 10  4  0  0  0  0
 10 11  1  0  0  0  0
 10 12  4  0  0  0  0
 12  3  4  0  0  0  0
 12 13  1  0  0  0  0
 13 14  1  0  0  0  0
 14 15  1  0  0  0  0
 14 16  1  0  0  0  0
 13 17  2  0  0  0  0
  2 18  2  0  0  0  0
  1 19  1  0  0  0  0
  1 20  1  0  0  0  0
M  END
> <CAS>
88-96-0

> <NAME>
1,2-BENZENEDICARBOXAMIDE

> <preferred_name>
Phthalamide

> <iupac>
benzene-1,2-dicarboxamide

> <SMILES>
NC(=O)c1ccccc1C(N)=O

> <Canonical_QSARr>
NC(=O)c1ccccc1C(N)=O

> <InChI_Code_QSARr>
InChI=1S/C8H8N2O2/c9-7(11)5-3-1-2-4-6(5)8(10)12/h1-4H,(H2,9,11)(H2,10,12)

> <InChI Key_QSARr>
NAYYNDKKHOIIOD-UHFFFAOYSA-N

> <Salt_Solvent>
?

> <WS Temperature>
20

> <WS Reference>
DEHN,WM (1917)

> <dsstox_substance_id>
DTXSID7021158

> <LogMolar>
-2.4371

$$$$
89-61-2
  -INDIGO-01081615412D

 14 14  0  0  0  0  0  0  0  0999 V2000
    0.8000    1.3856    0.0000 C   0  0  0  0  0  0  0  0  0  0  0  0
    0.0000    2.7713    0.0000 Cl  0  0  0  0  0  0  0  0  0  0  0  0
    0.0000   -0.0000    0.0000 C   0  0  0  0  0  0  0  0  0  0  0  0
   -1.6000   -0.0000    0.0000 N   0  0  0  0  0  0  0  0  0  0  0  0
   -2.4000   -1.3856    0.0000 O   0  0  0  0  0  0  0  0  0  0  0  0
   -2.4000    1.3856    0.0000 O   0  0  0  0  0  0  0  0  0  0  0  0
    0.8000   -1.3856    0.0000 C   0  0  0  0  0  0  0  0  0  0  0  0
    0.0000   -2.7713    0.0000 H   0  0  0  0  0  0  0  0  0  0  0  0
    2.4000   -1.3856    0.0000 C   0  0  0  0  0  0  0  0  0  0  0  0
    3.2000   -2.7713    0.0000 Cl  0  0  0  0  0  0  0  0  0  0  0  0
    3.2000    0.0000    0.0000 C   0  0  0  0  0  0  0  0  0  0  0  0
    4.8000    0.0000    0.0000 H   0  0  0  0  0  0  0  0  0  0  0  0
    2.4000    1.3856    0.0000 C   0  0  0  0  0  0  0  0  0  0  0  0
    3.2000    2.7713    0.0000 H   0  0  0  0  0  0  0  0  0  0  0  0
  1  2  1  0  0  0  0
  1  3  4  0  0  0  0
  3  4  1  0  0  0  0
  4  5  2  0  0  0  0
  4  6  1  0  0  0  0
  3  7  4  0  0  0  0
  7  8  1  0  0  0  0
  7  9  4  0  0  0  0
  9 10  1  0  0  0  0
  9 11  4  0  0  0  0
 11 12  1  0  0  0  0
 11 13  4  0  0  0  0
 13  1  4  0  0  0  0
 13 14  1  0  0  0  0
M  CHG  2   4   1   6  -1
M  END
> <CAS>
89-61-2

> <NAME>
2,5-DICHLORONITROBENZENE

> <preferred_name>
1,4-Dichloro-2-nitrobenzene

> <iupac>
1,4-dichloro-2-nitrobenzene

> <SMILES>
[O-][N+](=O)c1cc(Cl)ccc1Cl

> <Canonical_QSARr>
[O-][N+](=O)c1cc(Cl)ccc1Cl

> <InChI_Code_QSARr>
InChI=1S/C6H3Cl2NO2/c7-4-1-2-5(8)6(3-4)9(10)11/h1-3H

> <InChI Key_QSARr>
RZKKOBGFCAHLCZ-UHFFFAOYSA-N

> <Salt_Solvent>
?

> <WS Temperature>
25

> <WS Reference>
JONES,CJ ET AL. (1978)

> <dsstox_substance_id>
DTXSID7052602

> <LogMolar>
-4.1372

$$$$
89-69-0
  -INDIGO-01081615412D

 14 14  0  0  0  0  0  0  0  0999 V2000
    1.6000    0.0000    0.0000 N   0  0  0  0  0  0  0  0  0  0  0  0
    0.0000   -0.0000    0.0000 C   0  0  0  0  0  0  0  0  0  0  0  0
   -0.8000    1.3856    0.0000 C   0  0  0  0  0  0  0  0  0  0  0  0
    0.0000    2.7713    0.0000 Cl  0  0  0  0  0  0  0  0  0  0  0  0
   -2.4000    1.3856    0.0000 C   0  0  0  0  0  0  0  0  0  0  0  0
   -3.2000    2.7713    0.0000 H   0  0  0  0  0  0  0  0  0  0  0  0
   -3.2000   -0.0000    0.0000 C   0  0  0  0  0  0  0  0  0  0  0  0
   -4.8000   -0.0000    0.0000 Cl  0  0  0  0  0  0  0  0  0  0  0  0
   -2.4000   -1.3856    0.0000 C   0  0  0  0  0  0  0  0  0  0  0  0
   -3.2000   -2.7713    0.0000 Cl  0  0  0  0  0  0  0  0  0  0  0  0
   -0.8000   -1.3856    0.0000 C   0  0  0  0  0  0  0  0  0  0  0  0
    0.0000   -2.7713    0.0000 H   0  0  0  0  0  0  0  0  0  0  0  0
    2.4000   -1.3856    0.0000 O   0  0  0  0  0  0  0  0  0  0  0  0
    2.4000    1.3856    0.0000 O   0  0  0  0  0  0  0  0  0  0  0  0
  1  2  1  0  0  0  0
  2  3  4  0  0  0  0
  3  4  1  0  0  0  0
  3  5  4  0  0  0  0
  5  6  1  0  0  0  0
  5  7  4  0  0  0  0
  7  8  1  0  0  0  0
  7  9  4  0  0  0  0
  9 10  1  0  0  0  0
  9 11  4  0  0  0  0
 11  2  4  0  0  0  0
 11 12  1  0  0  0  0
  1 13  1  0  0  0  0
  1 14  2  0  0  0  0
M  CHG  2   1   1  13  -1
M  END
> <CAS>
89-69-0

> <NAME>
2,4,5-TRICHLORONITROBENZENE

> <preferred_name>
2,4,5-Trichloronitrobenzene

> <iupac>
1,2,4-trichloro-5-nitrobenzene

> <SMILES>
[O-][N+](=O)c1cc(Cl)c(Cl)cc1Cl

> <Canonical_QSARr>
[O-][N+](=O)c1cc(Cl)c(Cl)cc1Cl

> <InChI_Code_QSARr>
InChI=1S/C6H2Cl3NO2/c7-3-1-5(9)6(10(11)12)2-4(3)8/h1-2H

> <InChI Key_QSARr>
IBRBMZRLVYKVRF-UHFFFAOYSA-N

> <Salt_Solvent>
?

> <WS Temperature>
20

> <WS Reference>
YALKOWSKY,SH & DANNENFELSER,RM (1992)

> <dsstox_substance_id>
DTXSID5026203

> <LogMolar>
-3.8866

$$$$
89-86-1
  -INDIGO-01081615412D

 17 17  0  0  0  0  0  0  0  0999 V2000
    1.6000    0.0000    0.0000 C   0  0  0  0  0  0  0  0  0  0  0  0
    0.0000    0.0000    0.0000 C   0  0  0  0  0  0  0  0  0  0  0  0
   -0.8001    1.3856    0.0000 C   0  0  0  0  0  0  0  0  0  0  0  0
    0.0000    2.7713    0.0000 O   0  0  0  0  0  0  0  0  0  0  0  0
   -0.8001    4.1569    0.0000 H   0  0  0  0  0  0  0  0  0  0  0  0
   -2.4000    1.3856    0.0000 C   0  0  0  0  0  0  0  0  0  0  0  0
   -3.2000    2.7713    0.0000 H   0  0  0  0  0  0  0  0  0  0  0  0
   -3.2000    0.0000    0.0000 C   0  0  0  0  0  0  0  0  0  0  0  0
   -4.8000    0.0000    0.0000 O   0  0  0  0  0  0  0  0  0  0  0  0
   -5.6000   -1.3856    0.0000 H   0  0  0  0  0  0  0  0  0  0  0  0
   -2.4000   -1.3856    0.0000 C   0  0  0  0  0  0  0  0  0  0  0  0
   -3.2000   -2.7713    0.0000 H   0  0  0  0  0  0  0  0  0  0  0  0
   -0.8001   -1.3856    0.0000 C   0  0  0  0  0  0  0  0  0  0  0  0
    0.0000   -2.7713    0.0000 H   0  0  0  0  0  0  0  0  0  0  0  0
    2.4001   -1.3856    0.0000 O   0  0  0  0  0  0  0  0  0  0  0  0
    4.0000   -1.3856    0.0000 H   0  0  0  0  0  0  0  0  0  0  0  0
    2.3999    1.3856    0.0000 O   0  0  0  0  0  0  0  0  0  0  0  0
  1  2  1  0  0  0  0
  2  3  4  0  0  0  0
  3  4  1  0  0  0  0
  4  5  1  0  0  0  0
  3  6  4  0  0  0  0
  6  7  1  0  0  0  0
  6  8  4  0  0  0  0
  8  9  1  0  0  0  0
  9 10  1  0  0  0  0
  8 11  4  0  0  0  0
 11 12  1  0  0  0  0
 11 13  4  0  0  0  0
 13  2  4  0  0  0  0
 13 14  1  0  0  0  0
  1 15  1  0  0  0  0
 15 16  1  0  0  0  0
  1 17  2  0  0  0  0
M  END
> <CAS>
89-86-1

> <NAME>
2,4-DIHYDROXYBENZOIC ACID

> <preferred_name>
2,4-Dihydroxybenzoic acid

> <iupac>
2,4-dihydroxybenzoic acid

> <SMILES>
Oc1cc(O)c(cc1)C(O)=O

> <Canonical_QSARr>
Oc1cc(O)c(cc1)C(O)=O

> <InChI_Code_QSARr>
InChI=1S/C7H6O4/c8-4-1-2-5(7(10)11)6(9)3-4/h1-3,8-9H,(H,10,11)

> <InChI Key_QSARr>
UIAFKZKHHVMJGS-UHFFFAOYSA-N

> <Salt_Solvent>
?

> <WS Temperature>
25

> <WS Reference>
BEILSTEIN

> <dsstox_substance_id>
DTXSID0025074

> <LogMolar>
-1.426

$$$$
90-04-0
  -INDIGO-01081615412D

 18 18  0  0  0  0  0  0  0  0999 V2000
   -1.5999    0.0000    0.0000 C   0  0  0  0  0  0  0  0  0  0  0  0
   -2.4000   -1.3856    0.0000 C   0  0  0  0  0  0  0  0  0  0  0  0
   -4.0000   -1.3856    0.0000 H   0  0  0  0  0  0  0  0  0  0  0  0
   -1.5999   -2.7713    0.0000 C   0  0  0  0  0  0  0  0  0  0  0  0
   -2.4000   -4.1569    0.0000 H   0  0  0  0  0  0  0  0  0  0  0  0
    0.0001   -2.7713    0.0000 C   0  0  0  0  0  0  0  0  0  0  0  0
    0.8000   -4.1569    0.0000 H   0  0  0  0  0  0  0  0  0  0  0  0
    0.8000   -1.3856    0.0000 C   0  0  0  0  0  0  0  0  0  0  0  0
    2.4000   -1.3856    0.0000 H   0  0  0  0  0  0  0  0  0  0  0  0
    0.0001    0.0000    0.0000 C   0  0  0  0  0  0  0  0  0  0  0  0
    0.8000    1.3856    0.0000 O   0  0  0  0  0  0  0  0  0  0  0  0
    2.4000    1.3856    0.0000 C   0  0  0  0  0  0  0  0  0  0  0  0
    3.2001    2.7713    0.0000 H   0  0  0  0  0  0  0  0  0  0  0  0
    4.0000    1.3856    0.0000 H   0  0  0  0  0  0  0  0  0  0  0  0
    1.6001    2.7713    0.0000 H   0  0  0  0  0  0  0  0  0  0  0  0
   -2.4000    1.3856    0.0000 N   0  0  0  0  0  0  0  0  0  0  0  0
   -4.0000    1.3856    0.0000 H   0  0  0  0  0  0  0  0  0  0  0  0
   -1.6001    2.7713    0.0000 H   0  0  0  0  0  0  0  0  0  0  0  0
  1  2  4  0  0  0  0
  2  3  1  0  0  0  0
  2  4  4  0  0  0  0
  4  5  1  0  0  0  0
  4  6  4  0  0  0  0
  6  7  1  0  0  0  0
  6  8  4  0  0  0  0
  8  9  1  0  0  0  0
  8 10  4  0  0  0  0
 10  1  4  0  0  0  0
 10 11  1  0  0  0  0
 11 12  1  0  0  0  0
 12 13  1  0  0  0  0
 12 14  1  0  0  0  0
 12 15  1  0  0  0  0
  1 16  1  0  0  0  0
 16 17  1  0  0  0  0
 16 18  1  0  0  0  0
M  END
> <CAS>
90-04-0

> <NAME>
2-METHOXYANILINE

> <preferred_name>
2-Anisidine

> <iupac>
2-methoxyaniline

> <SMILES>
COc1ccccc1N

> <Canonical_QSARr>
COc1ccccc1N

> <InChI_Code_QSARr>
InChI=1S/C7H9NO/c1-9-7-5-3-2-4-6(7)8/h2-5H,8H2,1H3

> <InChI Key_QSARr>
VMPITZXILSNTON-UHFFFAOYSA-N

> <Salt_Solvent>
?

> <WS Temperature>
25

> <WS Reference>
YALKOWSKY,SH & HE,Y (2003)

> <dsstox_substance_id>
DTXSID5023877

> <LogMolar>
-0.9901

$$$$
90-13-1
  -INDIGO-01081615412D

 18 19  0  0  0  0  0  0  0  0999 V2000
    2.7713    1.6000    0.0000 C   0  0  0  0  0  0  0  0  0  0  0  0
    1.3856    2.4000    0.0000 C   0  0  0  0  0  0  0  0  0  0  0  0
    1.3856    4.0000    0.0000 H   0  0  0  0  0  0  0  0  0  0  0  0
    0.0001    1.6000    0.0000 C   0  0  0  0  0  0  0  0  0  0  0  0
   -1.3856    2.4000    0.0000 C   0  0  0  0  0  0  0  0  0  0  0  0
   -1.3856    4.0000    0.0000 Cl  0  0  0  0  0  0  0  0  0  0  0  0
   -2.7712    1.6000    0.0000 C   0  0  0  0  0  0  0  0  0  0  0  0
   -2.7712    0.0000    0.0000 C   0  0  0  0  0  0  0  0  0  0  0  0
   -1.3856   -0.8000    0.0000 C   0  0  0  0  0  0  0  0  0  0  0  0
   -1.3856   -2.4000    0.0000 H   0  0  0  0  0  0  0  0  0  0  0  0
    0.0001    0.0000    0.0000 C   0  0  0  0  0  0  0  0  0  0  0  0
    1.3856   -0.8000    0.0000 C   0  0  0  0  0  0  0  0  0  0  0  0
    1.3856   -2.4000    0.0000 H   0  0  0  0  0  0  0  0  0  0  0  0
    2.7713    0.0000    0.0000 C   0  0  0  0  0  0  0  0  0  0  0  0
    4.1569   -0.8000    0.0000 H   0  0  0  0  0  0  0  0  0  0  0  0
   -4.1569   -0.8000    0.0000 H   0  0  0  0  0  0  0  0  0  0  0  0
   -4.1569    2.4000    0.0000 H   0  0  0  0  0  0  0  0  0  0  0  0
    4.1569    2.4000    0.0000 H   0  0  0  0  0  0  0  0  0  0  0  0
  1  2  4  0  0  0  0
  2  3  1  0  0  0  0
  2  4  4  0  0  0  0
  4  5  4  0  0  0  0
  5  6  1  0  0  0  0
  5  7  4  0  0  0  0
  7  8  4  0  0  0  0
  8  9  4  0  0  0  0
  9 10  1  0  0  0  0
  9 11  4  0  0  0  0
 11  4  4  0  0  0  0
 11 12  4  0  0  0  0
 12 13  1  0  0  0  0
 12 14  4  0  0  0  0
 14  1  4  0  0  0  0
 14 15  1  0  0  0  0
  8 16  1  0  0  0  0
  7 17  1  0  0  0  0
  1 18  1  0  0  0  0
M  END
> <CAS>
90-13-1

> <NAME>
1-CHLORONAPHTHALENE

> <preferred_name>
1-Chloronaphthalene

> <iupac>
1-chloronaphthalene

> <SMILES>
Clc1cccc2ccccc21

> <Canonical_QSARr>
Clc1cccc2ccccc21

> <InChI_Code_QSARr>
InChI=1S/C10H7Cl/c11-10-7-3-5-8-4-1-2-6-9(8)10/h1-7H

> <InChI Key_QSARr>
JTPNRXUCIXHOKM-UHFFFAOYSA-N

> <Salt_Solvent>
?

> <WS Temperature>
25

> <WS Reference>
WASIK,SP ET AL. (1981)

> <dsstox_substance_id>
DTXSID2024791

> <LogMolar>
-3.9706

$$$$
90-39-1
  -INDIGO-01081615412D

 43 46  0  0  0  0  0  0  0  0999 V2000
   -1.3857   -0.8000    0.0000 C   0  0  0  0  0  0  0  0  0  0  0  0
   -2.7712    0.0000    0.0000 C   0  0  0  0  0  0  0  0  0  0  0  0
   -2.2241    1.5035    0.0000 H   0  0  0  0  0  0  0  0  0  0  0  0
   -3.7997    1.2257    0.0000 H   0  0  0  0  0  0  0  0  0  0  0  0
   -4.1570   -0.8000    0.0000 C   0  0  0  0  0  0  0  0  0  0  0  0
   -4.7041    0.7035    0.0000 H   0  0  0  0  0  0  0  0  0  0  0  0
   -5.7326   -1.0778    0.0000 H   0  0  0  0  0  0  0  0  0  0  0  0
   -4.1570   -2.4000    0.0000 C   0  0  0  0  0  0  0  0  0  0  0  0
   -5.7326   -2.1222    0.0000 H   0  0  0  0  0  0  0  0  0  0  0  0
   -4.7041   -3.9035    0.0000 H   0  0  0  0  0  0  0  0  0  0  0  0
   -2.7712   -3.2000    0.0000 C   0  0  0  0  0  0  0  0  0  0  0  0
   -3.7997   -4.4257    0.0000 H   0  0  0  0  0  0  0  0  0  0  0  0
   -1.9712   -4.5856    0.0000 H   0  0  0  0  0  0  0  0  0  0  0  0
   -1.3857   -2.4000    0.0000 N   0  0  0  0  0  0  0  0  0  0  0  0
   -0.0001   -3.2000    0.0000 C   0  0  0  0  0  0  0  0  0  0  0  0
   -1.0284   -4.4257    0.0000 H   0  0  0  0  0  0  0  0  0  0  0  0
    1.0284   -4.4257    0.0000 H   0  0  0  0  0  0  0  0  0  0  0  0
    1.3857   -2.4000    0.0000 C   0  0  0  0  0  0  0  0  0  0  0  0
    1.3857   -0.8000    0.0000 C   0  0  0  0  0  0  0  0  0  0  0  0
    2.9856   -0.8000    0.0000 H   0  0  0  0  0  0  0  0  0  0  0  0
    2.1856    0.5857    0.0000 H   0  0  0  0  0  0  0  0  0  0  0  0
   -0.0001    0.0000    0.0000 C   0  0  0  0  0  0  0  0  0  0  0  0
    1.3857    0.8000    0.0000 C   0  0  0  0  0  0  0  0  0  0  0  0
    2.7713    0.0000    0.0000 N   0  0  0  0  0  0  0  0  0  0  0  0
    2.7713   -1.6000    0.0000 C   0  0  0  0  0  0  0  0  0  0  0  0
    2.7713   -3.2000    0.0000 H   0  0  0  0  0  0  0  0  0  0  0  0
    4.1569   -2.4000    0.0000 C   0  0  0  0  0  0  0  0  0  0  0  0
    3.6098   -3.9035    0.0000 H   0  0  0  0  0  0  0  0  0  0  0  0
    5.1854   -3.6257    0.0000 H   0  0  0  0  0  0  0  0  0  0  0  0
    5.5427   -1.6000    0.0000 C   0  0  0  0  0  0  0  0  0  0  0  0
    6.0898   -3.1035    0.0000 H   0  0  0  0  0  0  0  0  0  0  0  0
    7.1183   -1.3222    0.0000 H   0  0  0  0  0  0  0  0  0  0  0  0
    5.5427    0.0000    0.0000 C   0  0  0  0  0  0  0  0  0  0  0  0
    7.1183   -0.2779    0.0000 H   0  0  0  0  0  0  0  0  0  0  0  0
    6.0898    1.5035    0.0000 H   0  0  0  0  0  0  0  0  0  0  0  0
    4.1569    0.8000    0.0000 C   0  0  0  0  0  0  0  0  0  0  0  0
    5.1854    2.0257    0.0000 H   0  0  0  0  0  0  0  0  0  0  0  0
    3.3570    2.1856    0.0000 H   0  0  0  0  0  0  0  0  0  0  0  0
    2.1856    2.1856    0.0000 H   0  0  0  0  0  0  0  0  0  0  0  0
    0.3572    2.0257    0.0000 H   0  0  0  0  0  0  0  0  0  0  0  0
   -0.5472    1.5035    0.0000 H   0  0  0  0  0  0  0  0  0  0  0  0
    2.1856   -3.7856    0.0000 H   0  0  0  0  0  0  0  0  0  0  0  0
   -1.3857    0.8000    0.0000 H   0  0  0  0  0  0  0  0  0  0  0  0
  1  2  1  0  0  0  0
  2  3  1  0  0  0  0
  2  4  1  0  0  0  0
  2  5  1  0  0  0  0
  5  6  1  0  0  0  0
  5  7  1  0  0  0  0
  5  8  1  0  0  0  0
  8  9  1  0  0  0  0
  8 10  1  0  0  0  0
  8 11  1  0  0  0  0
 11 12  1  0  0  0  0
 11 13  1  0  0  0  0
 11 14  1  0  0  0  0
 14  1  1  0  0  0  0
 14 15  1  0  0  0  0
 15 16  1  0  0  0  0
 15 17  1  0  0  0  0
 15 18  1  0  0  0  0
 18 19  1  0  0  0  0
 19 20  1  0  0  0  0
 19 21  1  0  0  0  0
 19 22  1  0  0  0  0
 22  1  1  0  0  0  0
 22 23  1  0  0  0  0
 23 24  1  0  0  0  0
 24 25  1  0  0  0  0
 25 18  1  0  0  0  0
 25 26  1  0  0  0  0
 25 27  1  0  0  0  0
 27 28  1  0  0  0  0
 27 29  1  0  0  0  0
 27 30  1  0  0  0  0
 30 31  1  0  0  0  0
 30 32  1  0  0  0  0
 30 33  1  0  0  0  0
 33 34  1  0  0  0  0
 33 35  1  0  0  0  0
 33 36  1  0  0  0  0
 36 24  1  0  0  0  0
 36 37  1  0  0  0  0
 36 38  1  0  0  0  0
 23 39  1  0  0  0  0
 23 40  1  0  0  0  0
 22 41  1  0  0  0  0
 18 42  1  0  0  0  0
  1 43  1  0  0  0  0
M  END
> <CAS>
90-39-1

> <NAME>
L-SPARTEINE

> <preferred_name>
Sparteine

> <iupac>
sparteine

> <SMILES>
C1[C@@H]2C[C@@H](CN3CCCC[C@@H]32)[C@@H]2CCCCN21

> <Canonical_QSARr>
C1C2CC(CN3CCCCC32)C2CCCCN21

> <InChI_Code_QSARr>
InChI=1S/C15H26N2/c1-3-7-16-11-13-9-12(14(16)5-1)10-17-8-4-2-6-15(13)17/h12-15H,1-11H2

> <InChI Key_QSARr>
SLRCCWJSBJZJBV-UHFFFAOYSA-N

> <Salt_Solvent>
?

> <WS Temperature>
22

> <WS Reference>
YALKOWSKY,SH & DANNENFELSER,RM (1992)

> <dsstox_substance_id>
DTXSID4023591

> <LogMolar>
-1.8871

$$$$
90-80-2
  -INDIGO-01081615412D

 22 22  0  0  0  0  0  0  0  0999 V2000
    1.6000    2.7713    0.0000 C   0  0  0  0  0  0  0  0  0  0  0  0
    2.3999    4.1569    0.0000 O   0  0  0  0  0  0  0  0  0  0  0  0
    0.0001    2.7713    0.0000 O   0  0  0  0  0  0  0  0  0  0  0  0
   -0.8000    1.3857    0.0000 C   0  0  0  0  0  0  0  0  0  0  0  0
   -2.0256    2.4141    0.0000 C   0  0  0  0  0  0  0  0  0  0  0  0
   -3.2513    3.4426    0.0000 O   0  0  0  0  0  0  0  0  0  0  0  0
   -4.7549    2.8953    0.0000 H   0  0  0  0  0  0  0  0  0  0  0  0
   -3.0542    1.1885    0.0000 H   0  0  0  0  0  0  0  0  0  0  0  0
   -0.9972    3.6398    0.0000 H   0  0  0  0  0  0  0  0  0  0  0  0
   -2.0256    0.3572    0.0000 H   0  0  0  0  0  0  0  0  0  0  0  0
    0.0001   -0.0000    0.0000 C   0  0  0  0  0  0  0  0  0  0  0  0
   -1.5035   -0.5472    0.0000 O   0  0  0  0  0  0  0  0  0  0  0  0
   -1.7813   -2.1229    0.0000 H   0  0  0  0  0  0  0  0  0  0  0  0
    0.2779   -1.5757    0.0000 H   0  0  0  0  0  0  0  0  0  0  0  0
    1.6000   -0.0000    0.0000 C   0  0  0  0  0  0  0  0  0  0  0  0
    3.1035   -0.5472    0.0000 O   0  0  0  0  0  0  0  0  0  0  0  0
    3.3813   -2.1229    0.0000 H   0  0  0  0  0  0  0  0  0  0  0  0
    1.3222   -1.5757    0.0000 H   0  0  0  0  0  0  0  0  0  0  0  0
    2.3999    1.3857    0.0000 C   0  0  0  0  0  0  0  0  0  0  0  0
    3.6256    2.4141    0.0000 O   0  0  0  0  0  0  0  0  0  0  0  0
    5.1292    1.8669    0.0000 H   0  0  0  0  0  0  0  0  0  0  0  0
    3.6256    0.3572    0.0000 H   0  0  0  0  0  0  0  0  0  0  0  0
  1  2  2  0  0  0  0
  1  3  1  0  0  0  0
  3  4  1  0  0  0  0
  4  5  1  0  0  0  0
  5  6  1  0  0  0  0
  6  7  1  0  0  0  0
  5  8  1  0  0  0  0
  5  9  1  0  0  0  0
  4 10  1  0  0  0  0
  4 11  1  0  0  0  0
 11 12  1  0  0  0  0
 12 13  1  0  0  0  0
 11 14  1  0  0  0  0
 11 15  1  0  0  0  0
 15 16  1  0  0  0  0
 16 17  1  0  0  0  0
 15 18  1  0  0  0  0
 15 19  1  0  0  0  0
 19  1  1  0  0  0  0
 19 20  1  0  0  0  0
 20 21  1  0  0  0  0
 19 22  1  0  0  0  0
M  END
> <CAS>
90-80-2

> <NAME>
D-Gluconic acid, .delta.-lactone

> <preferred_name>
Gluconolactone

> <iupac>
(3R,4S,5S,6R)-3,4,5-trihydroxy-6-(hydroxymethyl)tetrahydro-2H-pyran-2-one

> <SMILES>
OC[C@H]1OC(=O)[C@H](O)[C@@H](O)[C@@H]1O

> <Canonical_QSARr>
OCC1OC(=O)C(O)C(O)C1O

> <InChI_Code_QSARr>
InChI=1S/C6H10O6/c7-1-2-3(8)4(9)5(10)6(11)12-2/h2-5,7-10H,1H2

> <InChI Key_QSARr>
PHOQVHQSTUBQQK-UHFFFAOYSA-N

> <Salt_Solvent>
?

> <WS Temperature>
25

> <WS Reference>
MERCK INDEX (1996)

> <dsstox_substance_id>
DTXSID0026549

> <LogMolar>
0.5201

$$$$
91-15-6
  -INDIGO-01081615412D

 14 14  0  0  0  0  0  0  0  0999 V2000
    0.0000   -0.0000    0.0000 C   0  0  0  0  0  0  0  0  0  0  0  0
   -1.3856    0.8000    0.0000 C   0  0  0  0  0  0  0  0  0  0  0  0
   -2.7713    1.6000    0.0000 N   0  0  0  0  0  0  0  0  0  0  0  0
    0.0000   -1.6000    0.0000 C   0  0  0  0  0  0  0  0  0  0  0  0
   -1.3856   -2.4000    0.0000 C   0  0  0  0  0  0  0  0  0  0  0  0
   -2.7713   -3.2000    0.0000 N   0  0  0  0  0  0  0  0  0  0  0  0
    1.3856   -2.4000    0.0000 C   0  0  0  0  0  0  0  0  0  0  0  0
    1.3856   -4.0000    0.0000 H   0  0  0  0  0  0  0  0  0  0  0  0
    2.7713   -1.6000    0.0000 C   0  0  0  0  0  0  0  0  0  0  0  0
    4.1569   -2.4000    0.0000 H   0  0  0  0  0  0  0  0  0  0  0  0
    2.7713   -0.0000    0.0000 C   0  0  0  0  0  0  0  0  0  0  0  0
    4.1569    0.8000    0.0000 H   0  0  0  0  0  0  0  0  0  0  0  0
    1.3856    0.8000    0.0000 C   0  0  0  0  0  0  0  0  0  0  0  0
    1.3856    2.4000    0.0000 H   0  0  0  0  0  0  0  0  0  0  0  0
  1  2  1  0  0  0  0
  2  3  3  0  0  0  0
  1  4  4  0  0  0  0
  4  5  1  0  0  0  0
  5  6  3  0  0  0  0
  4  7  4  0  0  0  0
  7  8  1  0  0  0  0
  7  9  4  0  0  0  0
  9 10  1  0  0  0  0
  9 11  4  0  0  0  0
 11 12  1  0  0  0  0
 11 13  4  0  0  0  0
 13  1  4  0  0  0  0
 13 14  1  0  0  0  0
M  END
> <CAS>
91-15-6

> <NAME>
1,2-DICYANOBENZENE

> <preferred_name>
1,2-Benzenedicarbonitrile

> <iupac>
benzene-1,2-dicarbonitrile

> <SMILES>
N#Cc1ccccc1C#N

> <Canonical_QSARr>
N#Cc1ccccc1C#N

> <InChI_Code_QSARr>
InChI=1S/C8H4N2/c9-5-7-3-1-2-4-8(7)6-10/h1-4H

> <InChI Key_QSARr>
XQZYPMVTSDWCCE-UHFFFAOYSA-N

> <Salt_Solvent>
?

> <WS Temperature>
25

> <WS Reference>
CHEMICALS INSPECTION AND TESTING INSTITU (1992)

> <dsstox_substance_id>
DTXSID8029604

> <LogMolar>
-2.5111

$$$$
91-20-3
  -INDIGO-01081615412D

 18 19  0  0  0  0  0  0  0  0999 V2000
   -1.3856    0.8000    0.0000 C   0  0  0  0  0  0  0  0  0  0  0  0
   -2.7712   -0.0000    0.0000 C   0  0  0  0  0  0  0  0  0  0  0  0
   -4.1569    0.8000    0.0000 H   0  0  0  0  0  0  0  0  0  0  0  0
   -2.7712   -1.6000    0.0000 C   0  0  0  0  0  0  0  0  0  0  0  0
   -4.1569   -2.4000    0.0000 H   0  0  0  0  0  0  0  0  0  0  0  0
   -1.3856   -2.4000    0.0000 C   0  0  0  0  0  0  0  0  0  0  0  0
   -1.3856   -4.0000    0.0000 H   0  0  0  0  0  0  0  0  0  0  0  0
    0.0001   -1.6000    0.0000 C   0  0  0  0  0  0  0  0  0  0  0  0
    1.3856   -2.4000    0.0000 C   0  0  0  0  0  0  0  0  0  0  0  0
    2.7713   -1.6000    0.0000 C   0  0  0  0  0  0  0  0  0  0  0  0
    2.7713   -0.0000    0.0000 C   0  0  0  0  0  0  0  0  0  0  0  0
    1.3856    0.8000    0.0000 C   0  0  0  0  0  0  0  0  0  0  0  0
    1.3856    2.4000    0.0000 H   0  0  0  0  0  0  0  0  0  0  0  0
    0.0001   -0.0000    0.0000 C   0  0  0  0  0  0  0  0  0  0  0  0
    4.1569    0.8000    0.0000 H   0  0  0  0  0  0  0  0  0  0  0  0
    4.1569   -2.4000    0.0000 H   0  0  0  0  0  0  0  0  0  0  0  0
    1.3856   -4.0000    0.0000 H   0  0  0  0  0  0  0  0  0  0  0  0
   -1.3856    2.4000    0.0000 H   0  0  0  0  0  0  0  0  0  0  0  0
  1  2  4  0  0  0  0
  2  3  1  0  0  0  0
  2  4  4  0  0  0  0
  4  5  1  0  0  0  0
  4  6  4  0  0  0  0
  6  7  1  0  0  0  0
  6  8  4  0  0  0  0
  8  9  4  0  0  0  0
  9 10  4  0  0  0  0
 10 11  4  0  0  0  0
 11 12  4  0  0  0  0
 12 13  1  0  0  0  0
 12 14  4  0  0  0  0
 14  1  4  0  0  0  0
 14  8  4  0  0  0  0
 11 15  1  0  0  0  0
 10 16  1  0  0  0  0
  9 17  1  0  0  0  0
  1 18  1  0  0  0  0
M  END
> <CAS>
91-20-3

> <NAME>
NAPHTHALENE

> <preferred_name>
Naphthalene

> <iupac>
naphthalene

> <SMILES>
c1cccc2ccccc21

> <Canonical_QSARr>
c1cccc2ccccc21

> <InChI_Code_QSARr>
InChI=1S/C10H8/c1-2-6-10-8-4-3-7-9(10)5-1/h1-8H

> <InChI Key_QSARr>
UFWIBTONFRDIAS-UHFFFAOYSA-N

> <Salt_Solvent>
?

> <WS Temperature>
25

> <WS Reference>
PEARLMAN,RS ET AL. (1984)

> <dsstox_substance_id>
DTXSID8020913

> <LogMolar>
-3.6165

$$$$
91-58-7
  -INDIGO-01081615412D

 18 19  0  0  0  0  0  0  0  0999 V2000
    0.0001   -0.0000    0.0000 C   0  0  0  0  0  0  0  0  0  0  0  0
   -1.3856    0.8000    0.0000 C   0  0  0  0  0  0  0  0  0  0  0  0
   -1.3856    2.4000    0.0000 H   0  0  0  0  0  0  0  0  0  0  0  0
   -2.7712   -0.0000    0.0000 C   0  0  0  0  0  0  0  0  0  0  0  0
   -4.1569    0.8000    0.0000 H   0  0  0  0  0  0  0  0  0  0  0  0
   -2.7712   -1.6000    0.0000 C   0  0  0  0  0  0  0  0  0  0  0  0
   -4.1569   -2.4000    0.0000 H   0  0  0  0  0  0  0  0  0  0  0  0
   -1.3856   -2.4000    0.0000 C   0  0  0  0  0  0  0  0  0  0  0  0
   -1.3856   -4.0000    0.0000 H   0  0  0  0  0  0  0  0  0  0  0  0
    0.0001   -1.6000    0.0000 C   0  0  0  0  0  0  0  0  0  0  0  0
    1.3856   -2.4000    0.0000 C   0  0  0  0  0  0  0  0  0  0  0  0
    1.3856   -4.0000    0.0000 H   0  0  0  0  0  0  0  0  0  0  0  0
    2.7713   -1.6000    0.0000 C   0  0  0  0  0  0  0  0  0  0  0  0
    4.1569   -2.4000    0.0000 H   0  0  0  0  0  0  0  0  0  0  0  0
    2.7713   -0.0000    0.0000 C   0  0  0  0  0  0  0  0  0  0  0  0
    4.1569    0.8000    0.0000 Cl  0  0  0  0  0  0  0  0  0  0  0  0
    1.3856    0.8000    0.0000 C   0  0  0  0  0  0  0  0  0  0  0  0
    1.3856    2.4000    0.0000 H   0  0  0  0  0  0  0  0  0  0  0  0
  1  2  4  0  0  0  0
  2  3  1  0  0  0  0
  2  4  4  0  0  0  0
  4  5  1  0  0  0  0
  4  6  4  0  0  0  0
  6  7  1  0  0  0  0
  6  8  4  0  0  0  0
  8  9  1  0  0  0  0
  8 10  4  0  0  0  0
 10  1  4  0  0  0  0
 10 11  4  0  0  0  0
 11 12  1  0  0  0  0
 11 13  4  0  0  0  0
 13 14  1  0  0  0  0
 13 15  4  0  0  0  0
 15 16  1  0  0  0  0
 15 17  4  0  0  0  0
 17  1  4  0  0  0  0
 17 18  1  0  0  0  0
M  END
> <CAS>
91-58-7

> <NAME>
2-CHLORONAPHTHALENE

> <preferred_name>
2-Chloronaphthalene

> <iupac>
2-chloronaphthalene

> <SMILES>
Clc1cc2ccccc2cc1

> <Canonical_QSARr>
Clc1cc2ccccc2cc1

> <InChI_Code_QSARr>
InChI=1S/C10H7Cl/c11-10-6-5-8-3-1-2-4-9(8)7-10/h1-7H

> <InChI Key_QSARr>
CGYGETOMCSJHJU-UHFFFAOYSA-N

> <Salt_Solvent>
?

> <WS Temperature>
25

> <WS Reference>
MACKAY,D & SHIU,WY (1981)

> <dsstox_substance_id>
DTXSID8023971

> <LogMolar>
-4.143

$$$$
91-75-8
  -INDIGO-01081615412D

 39 41  0  0  0  0  0  0  0  0999 V2000
    4.1569    4.0000    0.0000 C   0  0  0  0  0  0  0  0  0  0  0  0
    2.7714    3.2000    0.0000 C   0  0  0  0  0  0  0  0  0  0  0  0
    1.3856    4.0000    0.0000 H   0  0  0  0  0  0  0  0  0  0  0  0
    2.7714    1.6000    0.0000 C   0  0  0  0  0  0  0  0  0  0  0  0
    1.3856    0.8000    0.0000 C   0  0  0  0  0  0  0  0  0  0  0  0
    0.0001    0.0000    0.0000 N   0  0  0  0  0  0  0  0  0  0  0  0
    0.0001   -1.6000    0.0000 C   0  0  0  0  0  0  0  0  0  0  0  0
   -1.3857   -2.4000    0.0000 C   0  0  0  0  0  0  0  0  0  0  0  0
   -2.7712   -1.6000    0.0000 H   0  0  0  0  0  0  0  0  0  0  0  0
   -1.3857   -4.0000    0.0000 C   0  0  0  0  0  0  0  0  0  0  0  0
   -2.7712   -4.8000    0.0000 H   0  0  0  0  0  0  0  0  0  0  0  0
    0.0001   -4.8000    0.0000 C   0  0  0  0  0  0  0  0  0  0  0  0
    0.0001   -6.4000    0.0000 H   0  0  0  0  0  0  0  0  0  0  0  0
    1.3856   -4.0000    0.0000 C   0  0  0  0  0  0  0  0  0  0  0  0
    2.7714   -4.8000    0.0000 H   0  0  0  0  0  0  0  0  0  0  0  0
    1.3856   -2.4000    0.0000 C   0  0  0  0  0  0  0  0  0  0  0  0
    2.7714   -1.6000    0.0000 H   0  0  0  0  0  0  0  0  0  0  0  0
   -1.3857    0.8000    0.0000 C   0  0  0  0  0  0  0  0  0  0  0  0
   -2.7712    1.6000    0.0000 C   0  0  0  0  0  0  0  0  0  0  0  0
   -2.9386    3.1912    0.0000 N   0  0  0  0  0  0  0  0  0  0  0  0
   -4.5035    3.5239    0.0000 C   0  0  0  0  0  0  0  0  0  0  0  0
   -4.0092    5.0455    0.0000 H   0  0  0  0  0  0  0  0  0  0  0  0
   -5.9652    4.1747    0.0000 H   0  0  0  0  0  0  0  0  0  0  0  0
   -5.3035    2.1383    0.0000 C   0  0  0  0  0  0  0  0  0  0  0  0
   -6.5980    3.0788    0.0000 H   0  0  0  0  0  0  0  0  0  0  0  0
   -6.3743    0.9492    0.0000 H   0  0  0  0  0  0  0  0  0  0  0  0
   -4.2329    0.9492    0.0000 N   0  0  0  0  0  0  0  0  0  0  0  0
   -4.5656   -0.6158    0.0000 H   0  0  0  0  0  0  0  0  0  0  0  0
   -0.5857    2.1856    0.0000 H   0  0  0  0  0  0  0  0  0  0  0  0
   -2.1856   -0.5856    0.0000 H   0  0  0  0  0  0  0  0  0  0  0  0
    0.5856    2.1856    0.0000 H   0  0  0  0  0  0  0  0  0  0  0  0
    2.1856   -0.5856    0.0000 H   0  0  0  0  0  0  0  0  0  0  0  0
    4.1569    0.8000    0.0000 C   0  0  0  0  0  0  0  0  0  0  0  0
    4.1569   -0.8000    0.0000 H   0  0  0  0  0  0  0  0  0  0  0  0
    5.5427    1.6000    0.0000 C   0  0  0  0  0  0  0  0  0  0  0  0
    6.9282    0.8000    0.0000 H   0  0  0  0  0  0  0  0  0  0  0  0
    5.5427    3.2000    0.0000 C   0  0  0  0  0  0  0  0  0  0  0  0
    6.9282    4.0000    0.0000 H   0  0  0  0  0  0  0  0  0  0  0  0
    4.1569    5.6000    0.0000 H   0  0  0  0  0  0  0  0  0  0  0  0
  1  2  4  0  0  0  0
  2  3  1  0  0  0  0
  2  4  4  0  0  0  0
  4  5  1  0  0  0  0
  5  6  1  0  0  0  0
  6  7  1  0  0  0  0
  7  8  4  0  0  0  0
  8  9  1  0  0  0  0
  8 10  4  0  0  0  0
 10 11  1  0  0  0  0
 10 12  4  0  0  0  0
 12 13  1  0  0  0  0
 12 14  4  0  0  0  0
 14 15  1  0  0  0  0
 14 16  4  0  0  0  0
 16  7  4  0  0  0  0
 16 17  1  0  0  0  0
  6 18  1  0  0  0  0
 18 19  1  0  0  0  0
 19 20  2  0  0  0  0
 20 21  1  0  0  0  0
 21 22  1  0  0  0  0
 21 23  1  0  0  0  0
 21 24  1  0  0  0  0
 24 25  1  0  0  0  0
 24 26  1  0  0  0  0
 24 27  1  0  0  0  0
 27 19  1  0  0  0  0
 27 28  1  0  0  0  0
 18 29  1  0  0  0  0
 18 30  1  0  0  0  0
  5 31  1  0  0  0  0
  5 32  1  0  0  0  0
  4 33  4  0  0  0  0
 33 34  1  0  0  0  0
 33 35  4  0  0  0  0
 35 36  1  0  0  0  0
 35 37  4  0  0  0  0
 37  1  4  0  0  0  0
 37 38  1  0  0  0  0
  1 39  1  0  0  0  0
M  END
> <CAS>
91-75-8

> <NAME>
Antazoline

> <preferred_name>
Antazoline

> <iupac>
N-benzyl-N-(4,5-dihydro-1H-imidazol-2-ylmethyl)aniline

> <SMILES>
C(c1ccccc1)N(CC1NCCN=1)c1ccccc1

> <Canonical_QSARr>
C(c1ccccc1)N(CC1NCCN=1)c1ccccc1

> <InChI_Code_QSARr>
InChI=1S/C17H19N3/c1-3-7-15(8-4-1)13-20(14-17-18-11-12-19-17)16-9-5-2-6-10-16/h1-10H,11-14H2,(H,18,19)

> <InChI Key_QSARr>
REYFJDPCWQRWAA-UHFFFAOYSA-N

> <Salt_Solvent>
?

> <WS Temperature>
30

> <WS Reference>
YALKOWSKY,SH & DANNENFELSER,RM (1992)

> <dsstox_substance_id>
DTXSID3022613

> <LogMolar>
-2.6021

$$$$
91-81-6
  -INDIGO-01081615412D

 40 41  0  0  0  0  0  0  0  0999 V2000
    4.1569    4.0000    0.0000 C   0  0  0  0  0  0  0  0  0  0  0  0
    2.7714    3.2000    0.0000 C   0  0  0  0  0  0  0  0  0  0  0  0
    1.3856    4.0000    0.0000 H   0  0  0  0  0  0  0  0  0  0  0  0
    2.7714    1.6000    0.0000 C   0  0  0  0  0  0  0  0  0  0  0  0
    1.3856    0.8000    0.0000 C   0  0  0  0  0  0  0  0  0  0  0  0
    0.0001    0.0000    0.0000 N   0  0  0  0  0  0  0  0  0  0  0  0
   -0.0001   -1.6000    0.0000 C   0  0  0  0  0  0  0  0  0  0  0  0
   -1.3856   -2.4000    0.0000 C   0  0  0  0  0  0  0  0  0  0  0  0
   -2.7714   -1.6000    0.0000 H   0  0  0  0  0  0  0  0  0  0  0  0
   -1.3856   -4.0000    0.0000 C   0  0  0  0  0  0  0  0  0  0  0  0
   -2.7714   -4.8000    0.0000 H   0  0  0  0  0  0  0  0  0  0  0  0
   -0.0001   -4.8000    0.0000 C   0  0  0  0  0  0  0  0  0  0  0  0
   -0.0001   -6.4000    0.0000 H   0  0  0  0  0  0  0  0  0  0  0  0
    1.3856   -4.0000    0.0000 C   0  0  0  0  0  0  0  0  0  0  0  0
    2.7712   -4.8000    0.0000 H   0  0  0  0  0  0  0  0  0  0  0  0
    1.3856   -2.4000    0.0000 N   0  0  0  1  0  0  0  0  0  0  0  0
   -1.3856    0.8000    0.0000 C   0  0  0  0  0  0  0  0  0  0  0  0
   -2.7712    1.6000    0.0000 C   0  0  0  0  0  0  0  0  0  0  0  0
   -4.1569    2.4000    0.0000 N   0  0  0  0  0  0  0  0  0  0  0  0
   -4.1569    4.0000    0.0000 C   0  0  0  0  0  0  0  0  0  0  0  0
   -4.1569    5.6000    0.0000 H   0  0  0  0  0  0  0  0  0  0  0  0
   -5.5425    4.8000    0.0000 H   0  0  0  0  0  0  0  0  0  0  0  0
   -2.7712    4.8000    0.0000 H   0  0  0  0  0  0  0  0  0  0  0  0
   -5.5425    1.6000    0.0000 C   0  0  0  0  0  0  0  0  0  0  0  0
   -6.9282    0.8000    0.0000 H   0  0  0  0  0  0  0  0  0  0  0  0
   -6.9282    2.4000    0.0000 H   0  0  0  0  0  0  0  0  0  0  0  0
   -5.5425    0.0000    0.0000 H   0  0  0  0  0  0  0  0  0  0  0  0
   -1.9713    2.9856    0.0000 H   0  0  0  0  0  0  0  0  0  0  0  0
   -3.5712    0.2144    0.0000 H   0  0  0  0  0  0  0  0  0  0  0  0
   -2.1857   -0.5856    0.0000 H   0  0  0  0  0  0  0  0  0  0  0  0
   -0.5856    2.1856    0.0000 H   0  0  0  0  0  0  0  0  0  0  0  0
    2.1857   -0.5856    0.0000 H   0  0  0  0  0  0  0  0  0  0  0  0
    0.5856    2.1856    0.0000 H   0  0  0  0  0  0  0  0  0  0  0  0
    4.1569    0.8000    0.0000 C   0  0  0  0  0  0  0  0  0  0  0  0
    4.1569   -0.8000    0.0000 H   0  0  0  0  0  0  0  0  0  0  0  0
    5.5427    1.6000    0.0000 C   0  0  0  0  0  0  0  0  0  0  0  0
    6.9282    0.8000    0.0000 H   0  0  0  0  0  0  0  0  0  0  0  0
    5.5427    3.2000    0.0000 C   0  0  0  0  0  0  0  0  0  0  0  0
    6.9282    4.0000    0.0000 H   0  0  0  0  0  0  0  0  0  0  0  0
    4.1569    5.6000    0.0000 H   0  0  0  0  0  0  0  0  0  0  0  0
  1  2  4  0  0  0  0
  2  3  1  0  0  0  0
  2  4  4  0  0  0  0
  4  5  1  0  0  0  0
  5  6  1  0  0  0  0
  6  7  1  0  0  0  0
  7  8  4  0  0  0  0
  8  9  1  0  0  0  0
  8 10  4  0  0  0  0
 10 11  1  0  0  0  0
 10 12  4  0  0  0  0
 12 13  1  0  0  0  0
 12 14  4  0  0  0  0
 14 15  1  0  0  0  0
 14 16  4  0  0  0  0
 16  7  4  0  0  0  0
  6 17  1  0  0  0  0
 17 18  1  0  0  0  0
 18 19  1  0  0  0  0
 19 20  1  0  0  0  0
 20 21  1  0  0  0  0
 20 22  1  0  0  0  0
 20 23  1  0  0  0  0
 19 24  1  0  0  0  0
 24 25  1  0  0  0  0
 24 26  1  0  0  0  0
 24 27  1  0  0  0  0
 18 28  1  0  0  0  0
 18 29  1  0  0  0  0
 17 30  1  0  0  0  0
 17 31  1  0  0  0  0
  5 32  1  0  0  0  0
  5 33  1  0  0  0  0
  4 34  4  0  0  0  0
 34 35  1  0  0  0  0
 34 36  4  0  0  0  0
 36 37  1  0  0  0  0
 36 38  4  0  0  0  0
 38  1  4  0  0  0  0
 38 39  1  0  0  0  0
  1 40  1  0  0  0  0
M  END
> <CAS>
91-81-6

> <NAME>
Tripelennamine

> <preferred_name>
Tripelennamine

> <iupac>
N-benzyl-N',N'-dimethyl-N-(pyridin-2-yl)ethane-1,2-diamine

> <SMILES>
CN(C)CCN(Cc1ccccc1)c1cccc[n]1

> <Canonical_QSARr>
CN(C)CCN(Cc1ccccc1)c1cccc[n]1

> <InChI_Code_QSARr>
InChI=1S/C16H21N3/c1-18(2)12-13-19(16-10-6-7-11-17-16)14-15-8-4-3-5-9-15/h3-11H,12-14H2,1-2H3

> <InChI Key_QSARr>
UFLGIAIHIAPJJC-UHFFFAOYSA-N

> <Salt_Solvent>
?

> <WS Temperature>
30

> <WS Reference>
YALKOWSKY,SH & DANNENFELSER,RM (1992)

> <dsstox_substance_id>
DTXSID8023717

> <LogMolar>
-2.6383

$$$$
92-24-0
  -INDIGO-01081615412D

 30 33  0  0  0  0  0  0  0  0999 V2000
    0.0001   -0.0000    0.0000 C   0  0  0  0  0  0  0  0  0  0  0  0
   -1.3856    0.8000    0.0000 C   0  0  0  0  0  0  0  0  0  0  0  0
   -1.3856    2.4000    0.0000 H   0  0  0  0  0  0  0  0  0  0  0  0
   -2.7712   -0.0000    0.0000 C   0  0  0  0  0  0  0  0  0  0  0  0
   -2.7712   -1.6000    0.0000 C   0  0  0  0  0  0  0  0  0  0  0  0
   -4.1569   -2.4000    0.0000 C   0  0  0  0  0  0  0  0  0  0  0  0
   -5.5425   -1.6000    0.0000 C   0  0  0  0  0  0  0  0  0  0  0  0
   -5.5427   -0.0000    0.0000 C   0  0  0  0  0  0  0  0  0  0  0  0
   -4.1569    0.8000    0.0000 C   0  0  0  0  0  0  0  0  0  0  0  0
   -4.1569    2.4000    0.0000 H   0  0  0  0  0  0  0  0  0  0  0  0
   -6.9282    0.8000    0.0000 H   0  0  0  0  0  0  0  0  0  0  0  0
   -6.9282   -2.4000    0.0000 H   0  0  0  0  0  0  0  0  0  0  0  0
   -4.1569   -4.0000    0.0000 H   0  0  0  0  0  0  0  0  0  0  0  0
   -1.3856   -2.4000    0.0000 C   0  0  0  0  0  0  0  0  0  0  0  0
   -1.3856   -4.0000    0.0000 H   0  0  0  0  0  0  0  0  0  0  0  0
    0.0001   -1.6000    0.0000 C   0  0  0  0  0  0  0  0  0  0  0  0
    1.3856   -2.4000    0.0000 C   0  0  0  0  0  0  0  0  0  0  0  0
    1.3856   -4.0000    0.0000 H   0  0  0  0  0  0  0  0  0  0  0  0
    2.7714   -1.6000    0.0000 C   0  0  0  0  0  0  0  0  0  0  0  0
    2.7714   -0.0000    0.0000 C   0  0  0  0  0  0  0  0  0  0  0  0
    4.1569    0.8000    0.0000 C   0  0  0  0  0  0  0  0  0  0  0  0
    5.5427   -0.0000    0.0000 C   0  0  0  0  0  0  0  0  0  0  0  0
    5.5427   -1.6000    0.0000 C   0  0  0  0  0  0  0  0  0  0  0  0
    4.1569   -2.4000    0.0000 C   0  0  0  0  0  0  0  0  0  0  0  0
    4.1569   -4.0000    0.0000 H   0  0  0  0  0  0  0  0  0  0  0  0
    6.9282   -2.4000    0.0000 H   0  0  0  0  0  0  0  0  0  0  0  0
    6.9282    0.8000    0.0000 H   0  0  0  0  0  0  0  0  0  0  0  0
    4.1569    2.4000    0.0000 H   0  0  0  0  0  0  0  0  0  0  0  0
    1.3856    0.8000    0.0000 C   0  0  0  0  0  0  0  0  0  0  0  0
    1.3856    2.4000    0.0000 H   0  0  0  0  0  0  0  0  0  0  0  0
  1  2  4  0  0  0  0
  2  3  1  0  0  0  0
  2  4  4  0  0  0  0
  4  5  4  0  0  0  0
  5  6  4  0  0  0  0
  6  7  4  0  0  0  0
  7  8  4  0  0  0  0
  8  9  4  0  0  0  0
  9  4  4  0  0  0  0
  9 10  1  0  0  0  0
  8 11  1  0  0  0  0
  7 12  1  0  0  0  0
  6 13  1  0  0  0  0
  5 14  4  0  0  0  0
 14 15  1  0  0  0  0
 14 16  4  0  0  0  0
 16  1  4  0  0  0  0
 16 17  4  0  0  0  0
 17 18  1  0  0  0  0
 17 19  4  0  0  0  0
 19 20  4  0  0  0  0
 20 21  4  0  0  0  0
 21 22  4  0  0  0  0
 22 23  4  0  0  0  0
 23 24  4  0  0  0  0
 24 19  4  0  0  0  0
 24 25  1  0  0  0  0
 23 26  1  0  0  0  0
 22 27  1  0  0  0  0
 21 28  1  0  0  0  0
 20 29  4  0  0  0  0
 29  1  4  0  0  0  0
 29 30  1  0  0  0  0
M  END
> <CAS>
92-24-0

> <NAME>
TETRACENE

> <preferred_name>
Naphthacene

> <iupac>
TETRACENE

> <SMILES>
c1c2cc3ccccc3cc2cc2ccccc21

> <Canonical_QSARr>
c1c2cc3ccccc3cc2cc2ccccc21

> <InChI_Code_QSARr>
InChI=1S/C18H12/c1-2-6-14-10-18-12-16-8-4-3-7-15(16)11-17(18)9-13(14)5-1/h1-12H

> <InChI Key_QSARr>
IFLREYGFSNHWGE-UHFFFAOYSA-N

> <Salt_Solvent>
?

> <WS Temperature>
25

> <WS Reference>
YALKOWSKY,SH & DANNENFELSER,RM (1992)

> <dsstox_substance_id>
DTXSID4059045

> <LogMolar>
-8.1795

$$$$
92-62-6
  -INDIGO-01081615412D

 27 29  0  0  0  0  0  0  0  0999 V2000
    4.1570   -2.4000    0.0000 N   0  0  0  0  0  0  0  0  0  0  0  0
    2.7713   -1.6000    0.0000 C   0  0  0  0  0  0  0  0  0  0  0  0
    1.3857   -2.4000    0.0000 C   0  0  0  0  0  0  0  0  0  0  0  0
    1.3857   -4.0000    0.0000 H   0  0  0  0  0  0  0  0  0  0  0  0
    0.0000   -1.6000    0.0000 C   0  0  0  0  0  0  0  0  0  0  0  0
   -1.3855   -2.4000    0.0000 N   0  0  0  1  0  0  0  0  0  0  0  0
   -2.7713   -1.6000    0.0000 C   0  0  0  0  0  0  0  0  0  0  0  0
   -4.1570   -2.4000    0.0000 C   0  0  0  0  0  0  0  0  0  0  0  0
   -4.1570   -4.0000    0.0000 H   0  0  0  0  0  0  0  0  0  0  0  0
   -5.5426   -1.6000    0.0000 C   0  0  0  0  0  0  0  0  0  0  0  0
   -6.9281   -2.4000    0.0000 N   0  0  0  0  0  0  0  0  0  0  0  0
   -8.3138   -1.6000    0.0000 H   0  0  0  0  0  0  0  0  0  0  0  0
   -6.9281   -4.0000    0.0000 H   0  0  0  0  0  0  0  0  0  0  0  0
   -5.5426   -0.0000    0.0000 C   0  0  0  0  0  0  0  0  0  0  0  0
   -6.9281    0.8000    0.0000 H   0  0  0  0  0  0  0  0  0  0  0  0
   -4.1570    0.8000    0.0000 C   0  0  0  0  0  0  0  0  0  0  0  0
   -4.1570    2.4000    0.0000 H   0  0  0  0  0  0  0  0  0  0  0  0
   -2.7713   -0.0000    0.0000 C   0  0  0  0  0  0  0  0  0  0  0  0
   -1.3857    0.8000    0.0000 C   0  0  0  0  0  0  0  0  0  0  0  0
   -1.3857    2.4000    0.0000 H   0  0  0  0  0  0  0  0  0  0  0  0
    0.0000   -0.0000    0.0000 C   0  0  0  0  0  0  0  0  0  0  0  0
    1.3857    0.8000    0.0000 C   0  0  0  0  0  0  0  0  0  0  0  0
    1.3857    2.4000    0.0000 H   0  0  0  0  0  0  0  0  0  0  0  0
    2.7713   -0.0000    0.0000 C   0  0  0  0  0  0  0  0  0  0  0  0
    4.1570    0.8000    0.0000 H   0  0  0  0  0  0  0  0  0  0  0  0
    5.5426   -1.6000    0.0000 H   0  0  0  0  0  0  0  0  0  0  0  0
    4.1570   -4.0000    0.0000 H   0  0  0  0  0  0  0  0  0  0  0  0
  1  2  1  0  0  0  0
  2  3  4  0  0  0  0
  3  4  1  0  0  0  0
  3  5  4  0  0  0  0
  5  6  4  0  0  0  0
  6  7  4  0  0  0  0
  7  8  4  0  0  0  0
  8  9  1  0  0  0  0
  8 10  4  0  0  0  0
 10 11  1  0  0  0  0
 11 12  1  0  0  0  0
 11 13  1  0  0  0  0
 10 14  4  0  0  0  0
 14 15  1  0  0  0  0
 14 16  4  0  0  0  0
 16 17  1  0  0  0  0
 16 18  4  0  0  0  0
 18  7  4  0  0  0  0
 18 19  4  0  0  0  0
 19 20  1  0  0  0  0
 19 21  4  0  0  0  0
 21  5  4  0  0  0  0
 21 22  4  0  0  0  0
 22 23  1  0  0  0  0
 22 24  4  0  0  0  0
 24  2  4  0  0  0  0
 24 25  1  0  0  0  0
  1 26  1  0  0  0  0
  1 27  1  0  0  0  0
M  END
> <CAS>
92-62-6

> <NAME>
3,6-DIAMINOACRIDINE

> <preferred_name>
Proflavin

> <iupac>
C13H11N3

> <SMILES>
Nc1cc2[n]c3cc(N)ccc3cc2cc1

> <Canonical_QSARr>
Nc1cc2[n]c3cc(N)ccc3cc2cc1

> <InChI_Code_QSARr>
InChI=1S/C13H11N3/c14-10-3-1-8-5-9-2-4-11(15)7-13(9)16-12(8)6-10/h1-7H,14-15H2

> <InChI Key_QSARr>
WDVSHHCDHLJJJR-UHFFFAOYSA-N

> <Salt_Solvent>
?

> <WS Temperature>
20

> <WS Reference>
YALKOWSKY,SH & DANNENFELSER,RM (1992)

> <dsstox_substance_id>
DTXSID9043776

> <LogMolar>
0.3783

$$$$
92-87-5
  -INDIGO-01081615412D

 26 27  0  0  0  0  0  0  0  0999 V2000
    4.8000    0.0000    0.0000 N   0  0  0  0  0  0  0  0  0  0  0  0
    3.2000   -0.0000    0.0000 C   0  0  0  0  0  0  0  0  0  0  0  0
    2.4000    1.3856    0.0000 C   0  0  0  0  0  0  0  0  0  0  0  0
    3.2000    2.7713    0.0000 H   0  0  0  0  0  0  0  0  0  0  0  0
    0.7999    1.3856    0.0000 C   0  0  0  0  0  0  0  0  0  0  0  0
   -0.0001    2.7713    0.0000 H   0  0  0  0  0  0  0  0  0  0  0  0
   -0.0001   -0.0000    0.0000 C   0  0  0  0  0  0  0  0  0  0  0  0
   -1.5999   -0.0000    0.0000 C   0  0  0  0  0  0  0  0  0  0  0  0
   -2.3999    1.3856    0.0000 C   0  0  0  0  0  0  0  0  0  0  0  0
   -1.5999    2.7713    0.0000 H   0  0  0  0  0  0  0  0  0  0  0  0
   -4.0000    1.3856    0.0000 C   0  0  0  0  0  0  0  0  0  0  0  0
   -4.8000    2.7713    0.0000 H   0  0  0  0  0  0  0  0  0  0  0  0
   -4.8000   -0.0000    0.0000 C   0  0  0  0  0  0  0  0  0  0  0  0
   -6.4000   -0.0000    0.0000 N   0  0  0  0  0  0  0  0  0  0  0  0
   -7.2000    1.3856    0.0000 H   0  0  0  0  0  0  0  0  0  0  0  0
   -7.2000   -1.3856    0.0000 H   0  0  0  0  0  0  0  0  0  0  0  0
   -4.0000   -1.3856    0.0000 C   0  0  0  0  0  0  0  0  0  0  0  0
   -4.8000   -2.7713    0.0000 H   0  0  0  0  0  0  0  0  0  0  0  0
   -2.3999   -1.3856    0.0000 C   0  0  0  0  0  0  0  0  0  0  0  0
   -1.5999   -2.7713    0.0000 H   0  0  0  0  0  0  0  0  0  0  0  0
    0.7999   -1.3856    0.0000 C   0  0  0  0  0  0  0  0  0  0  0  0
   -0.0001   -2.7713    0.0000 H   0  0  0  0  0  0  0  0  0  0  0  0
    2.4000   -1.3856    0.0000 C   0  0  0  0  0  0  0  0  0  0  0  0
    3.2000   -2.7713    0.0000 H   0  0  0  0  0  0  0  0  0  0  0  0
    5.6000   -1.3856    0.0000 H   0  0  0  0  0  0  0  0  0  0  0  0
    5.6000    1.3856    0.0000 H   0  0  0  0  0  0  0  0  0  0  0  0
  1  2  1  0  0  0  0
  2  3  4  0  0  0  0
  3  4  1  0  0  0  0
  3  5  4  0  0  0  0
  5  6  1  0  0  0  0
  5  7  4  0  0  0  0
  7  8  1  0  0  0  0
  8  9  4  0  0  0  0
  9 10  1  0  0  0  0
  9 11  4  0  0  0  0
 11 12  1  0  0  0  0
 11 13  4  0  0  0  0
 13 14  1  0  0  0  0
 14 15  1  0  0  0  0
 14 16  1  0  0  0  0
 13 17  4  0  0  0  0
 17 18  1  0  0  0  0
 17 19  4  0  0  0  0
 19  8  4  0  0  0  0
 19 20  1  0  0  0  0
  7 21  4  0  0  0  0
 21 22  1  0  0  0  0
 21 23  4  0  0  0  0
 23  2  4  0  0  0  0
 23 24  1  0  0  0  0
  1 25  1  0  0  0  0
  1 26  1  0  0  0  0
M  END
> <CAS>
92-87-5

> <NAME>
BENZIDINE

> <preferred_name>
Benzidine

> <iupac>
biphenyl-4,4'-diamine

> <SMILES>
Nc1ccc(cc1)-c1ccc(N)cc1

> <Canonical_QSARr>
Nc1ccc(cc1)-c1ccc(N)cc1

> <InChI_Code_QSARr>
InChI=1S/C12H12N2/c13-11-5-1-9(2-6-11)10-3-7-12(14)8-4-10/h1-8H,13-14H2

> <InChI Key_QSARr>
HFACYLZERDEVSX-UHFFFAOYSA-N

> <Salt_Solvent>
?

> <WS Temperature>
25

> <WS Reference>
YALKOWSKY,SH & DANNENFELSER,RM (1992)

> <dsstox_substance_id>
DTXSID2020137

> <LogMolar>
-2.7575

$$$$
93-02-7
  -INDIGO-01081615412D

 22 22  0  0  0  0  0  0  0  0999 V2000
    0.0001    0.0000    0.0000 C   0  0  0  0  0  0  0  0  0  0  0  0
    1.6000    0.0000    0.0000 O   0  0  0  0  0  0  0  0  0  0  0  0
    2.4000    1.3856    0.0000 C   0  0  0  0  0  0  0  0  0  0  0  0
    4.0000    1.3856    0.0000 H   0  0  0  0  0  0  0  0  0  0  0  0
    3.2000    2.7713    0.0000 H   0  0  0  0  0  0  0  0  0  0  0  0
    3.2000    0.0000    0.0000 H   0  0  0  0  0  0  0  0  0  0  0  0
   -0.7999    1.3856    0.0000 C   0  0  0  0  0  0  0  0  0  0  0  0
    0.0001    2.7713    0.0000 H   0  0  0  0  0  0  0  0  0  0  0  0
   -2.4001    1.3856    0.0000 C   0  0  0  0  0  0  0  0  0  0  0  0
   -3.2001    2.7713    0.0000 H   0  0  0  0  0  0  0  0  0  0  0  0
   -3.2001    0.0000    0.0000 C   0  0  0  0  0  0  0  0  0  0  0  0
   -4.8000    0.0000    0.0000 O   0  0  0  0  0  0  0  0  0  0  0  0
   -5.6000    1.3856    0.0000 C   0  0  0  0  0  0  0  0  0  0  0  0
   -7.2000    1.3856    0.0000 H   0  0  0  0  0  0  0  0  0  0  0  0
   -6.4000    2.7713    0.0000 H   0  0  0  0  0  0  0  0  0  0  0  0
   -6.4000    0.0000    0.0000 H   0  0  0  0  0  0  0  0  0  0  0  0
   -2.4001   -1.3856    0.0000 C   0  0  0  0  0  0  0  0  0  0  0  0
   -3.2001   -2.7713    0.0000 H   0  0  0  0  0  0  0  0  0  0  0  0
   -0.7999   -1.3856    0.0000 C   0  0  0  0  0  0  0  0  0  0  0  0
    0.0001   -2.7713    0.0000 C   0  0  0  0  0  0  0  0  0  0  0  0
   -0.7999   -4.1569    0.0000 O   0  0  0  0  0  0  0  0  0  0  0  0
    1.6000   -2.7713    0.0000 H   0  0  0  0  0  0  0  0  0  0  0  0
  1  2  1  0  0  0  0
  2  3  1  0  0  0  0
  3  4  1  0  0  0  0
  3  5  1  0  0  0  0
  3  6  1  0  0  0  0
  1  7  4  0  0  0  0
  7  8  1  0  0  0  0
  7  9  4  0  0  0  0
  9 10  1  0  0  0  0
  9 11  4  0  0  0  0
 11 12  1  0  0  0  0
 12 13  1  0  0  0  0
 13 14  1  0  0  0  0
 13 15  1  0  0  0  0
 13 16  1  0  0  0  0
 11 17  4  0  0  0  0
 17 18  1  0  0  0  0
 17 19  4  0  0  0  0
 19  1  4  0  0  0  0
 19 20  1  0  0  0  0
 20 21  2  0  0  0  0
 20 22  1  0  0  0  0
M  END
> <CAS>
93-02-7

> <NAME>
Benzaldehyde, 2,5-dimethoxy-

> <preferred_name>
2,5-Dimethoxybenzaldehyde

> <iupac>
2,5-dimethoxybenzaldehyde

> <SMILES>
COc1ccc(cc1C=O)OC

> <Canonical_QSARr>
COc1ccc(cc1C=O)OC

> <InChI_Code_QSARr>
InChI=1S/C9H10O3/c1-11-8-3-4-9(12-2)7(5-8)6-10/h3-6H,1-2H3

> <InChI Key_QSARr>
AFUKNJHPZAVHGQ-UHFFFAOYSA-N

> <Salt_Solvent>
?

> <WS Temperature>
25

> <WS Reference>
JIN,LJ ET AL. (1998)

> <dsstox_substance_id>
DTXSID5052620

> <LogMolar>
-2.3202

$$$$
93-10-7
  -INDIGO-01081615412D

 20 21  0  0  0  0  0  0  0  0999 V2000
    0.7999    1.3856    0.0000 C   0  0  0  0  0  0  0  0  0  0  0  0
   -0.0001    2.7713    0.0000 C   0  0  0  0  0  0  0  0  0  0  0  0
    0.7999    4.1569    0.0000 H   0  0  0  0  0  0  0  0  0  0  0  0
   -1.6000    2.7713    0.0000 C   0  0  0  0  0  0  0  0  0  0  0  0
   -2.4000    4.1569    0.0000 H   0  0  0  0  0  0  0  0  0  0  0  0
   -2.4000    1.3856    0.0000 C   0  0  0  0  0  0  0  0  0  0  0  0
   -4.0000    1.3856    0.0000 H   0  0  0  0  0  0  0  0  0  0  0  0
   -1.6000    0.0000    0.0000 C   0  0  0  0  0  0  0  0  0  0  0  0
   -2.4000   -1.3856    0.0000 H   0  0  0  0  0  0  0  0  0  0  0  0
   -0.0001    0.0000    0.0000 C   0  0  0  0  0  0  0  0  0  0  0  0
    0.7999   -1.3856    0.0000 C   0  0  0  0  0  0  0  0  0  0  0  0
   -0.0001   -2.7713    0.0000 H   0  0  0  0  0  0  0  0  0  0  0  0
    2.4001   -1.3856    0.0000 C   0  0  0  0  0  0  0  0  0  0  0  0
    3.2001   -2.7713    0.0000 H   0  0  0  0  0  0  0  0  0  0  0  0
    3.2001    0.0000    0.0000 C   0  0  0  0  0  0  0  0  0  0  0  0
    4.8000    0.0000    0.0000 C   0  0  0  0  0  0  0  0  0  0  0  0
    5.6000   -1.3856    0.0000 O   0  0  0  0  0  0  0  0  0  0  0  0
    5.6000    1.3856    0.0000 O   0  0  0  0  0  0  0  0  0  0  0  0
    7.2000    1.3856    0.0000 H   0  0  0  0  0  0  0  0  0  0  0  0
    2.4001    1.3856    0.0000 N   0  0  0  1  0  0  0  0  0  0  0  0
  1  2  4  0  0  0  0
  2  3  1  0  0  0  0
  2  4  4  0  0  0  0
  4  5  1  0  0  0  0
  4  6  4  0  0  0  0
  6  7  1  0  0  0  0
  6  8  4  0  0  0  0
  8  9  1  0  0  0  0
  8 10  4  0  0  0  0
 10  1  4  0  0  0  0
 10 11  4  0  0  0  0
 11 12  1  0  0  0  0
 11 13  4  0  0  0  0
 13 14  1  0  0  0  0
 13 15  4  0  0  0  0
 15 16  1  0  0  0  0
 16 17  2  0  0  0  0
 16 18  1  0  0  0  0
 18 19  1  0  0  0  0
 15 20  4  0  0  0  0
 20  1  4  0  0  0  0
M  END
> <CAS>
93-10-7

> <NAME>
2-Quinolinecarboxylic acid

> <preferred_name>
2-Quinolinecarboxylic acid

> <iupac>
Quinoline-2-carboxylic acid

> <SMILES>
OC(=O)c1ccc2ccccc2[n]1

> <Canonical_QSARr>
OC(=O)c1ccc2ccccc2[n]1

> <InChI_Code_QSARr>
InChI=1S/C10H7NO2/c12-10(13)9-6-5-7-3-1-2-4-8(7)11-9/h1-6H,(H,12,13)

> <InChI Key_QSARr>
LOAUVZALPPNFOQ-UHFFFAOYSA-N

> <Salt_Solvent>
?

> <WS Temperature>
25

> <WS Reference>
BEILSTEIN

> <dsstox_substance_id>
DTXSID6059079

> <LogMolar>
-1.0911

$$$$
93-55-0
  -INDIGO-01081615412D

 20 20  0  0  0  0  0  0  0  0999 V2000
   -1.3856    0.8000    0.0000 C   0  0  0  0  0  0  0  0  0  0  0  0
   -2.7713   -0.0000    0.0000 C   0  0  0  0  0  0  0  0  0  0  0  0
   -4.1570    0.8000    0.0000 C   0  0  0  0  0  0  0  0  0  0  0  0
   -4.1570    2.4000    0.0000 H   0  0  0  0  0  0  0  0  0  0  0  0
   -5.5426   -0.0000    0.0000 C   0  0  0  0  0  0  0  0  0  0  0  0
   -6.9282    0.8000    0.0000 H   0  0  0  0  0  0  0  0  0  0  0  0
   -5.5426   -1.6000    0.0000 C   0  0  0  0  0  0  0  0  0  0  0  0
   -6.9282   -2.4000    0.0000 H   0  0  0  0  0  0  0  0  0  0  0  0
   -4.1570   -2.4000    0.0000 C   0  0  0  0  0  0  0  0  0  0  0  0
   -4.1570   -4.0000    0.0000 H   0  0  0  0  0  0  0  0  0  0  0  0
   -2.7713   -1.6000    0.0000 C   0  0  0  0  0  0  0  0  0  0  0  0
   -1.3856   -2.4000    0.0000 H   0  0  0  0  0  0  0  0  0  0  0  0
   -1.3856    2.4000    0.0000 O   0  0  0  0  0  0  0  0  0  0  0  0
    0.0000   -0.0000    0.0000 C   0  0  0  0  0  0  0  0  0  0  0  0
    1.3857   -0.8000    0.0000 C   0  0  0  0  0  0  0  0  0  0  0  0
    2.7713   -1.6000    0.0000 H   0  0  0  0  0  0  0  0  0  0  0  0
    2.7713   -0.0000    0.0000 H   0  0  0  0  0  0  0  0  0  0  0  0
    1.3857   -2.4000    0.0000 H   0  0  0  0  0  0  0  0  0  0  0  0
    0.8000    1.3856    0.0000 H   0  0  0  0  0  0  0  0  0  0  0  0
   -0.8001   -1.3856    0.0000 H   0  0  0  0  0  0  0  0  0  0  0  0
  1  2  1  0  0  0  0
  2  3  4  0  0  0  0
  3  4  1  0  0  0  0
  3  5  4  0  0  0  0
  5  6  1  0  0  0  0
  5  7  4  0  0  0  0
  7  8  1  0  0  0  0
  7  9  4  0  0  0  0
  9 10  1  0  0  0  0
  9 11  4  0  0  0  0
 11  2  4  0  0  0  0
 11 12  1  0  0  0  0
  1 13  2  0  0  0  0
  1 14  1  0  0  0  0
 14 15  1  0  0  0  0
 15 16  1  0  0  0  0
 15 17  1  0  0  0  0
 15 18  1  0  0  0  0
 14 19  1  0  0  0  0
 14 20  1  0  0  0  0
M  END
> <CAS>
93-55-0

> <NAME>
PROPIOPHENONE

> <preferred_name>
1-Phenylpropan-1-one

> <iupac>
1-phenylpropan-1-one

> <SMILES>
CCC(=O)c1ccccc1

> <Canonical_QSARr>
CCC(=O)c1ccccc1

> <InChI_Code_QSARr>
InChI=1S/C9H10O/c1-2-9(10)8-6-4-3-5-7-8/h3-7H,2H2,1H3

> <InChI Key_QSARr>
KRIOVPPHQSLHCZ-UHFFFAOYSA-N

> <Salt_Solvent>
?

> <WS Temperature>
20

> <WS Reference>
PAPA,AJ & SHERMAN,PDJR (1981)

> <dsstox_substance_id>
DTXSID2044470

> <LogMolar>
-1.8267

$$$$
93-71-0
  -INDIGO-01081615412D

 23 22  0  0  0  0  0  0  0  0999 V2000
    0.0001   -1.6000    0.0000 C   0  0  0  0  0  0  0  0  0  0  0  0
    1.3856   -2.4000    0.0000 C   0  0  0  0  0  0  0  0  0  0  0  0
    1.3856   -4.0000    0.0000 Cl  0  0  0  0  0  0  0  0  0  0  0  0
    2.7712   -3.2000    0.0000 H   0  0  0  0  0  0  0  0  0  0  0  0
    0.0001   -3.2000    0.0000 H   0  0  0  0  0  0  0  0  0  0  0  0
   -1.3856   -2.4000    0.0000 O   0  0  0  0  0  0  0  0  0  0  0  0
    0.0001   -0.0000    0.0000 N   0  0  0  0  0  0  0  0  0  0  0  0
   -1.3856    0.8000    0.0000 C   0  0  0  0  0  0  0  0  0  0  0  0
   -2.7712    1.6000    0.0000 C   0  0  0  0  0  0  0  0  0  0  0  0
   -4.1569    0.8000    0.0000 C   0  0  0  0  0  0  0  0  0  0  0  0
   -5.5426    1.6000    0.0000 H   0  0  0  0  0  0  0  0  0  0  0  0
   -4.1569   -0.8000    0.0000 H   0  0  0  0  0  0  0  0  0  0  0  0
   -2.7712    3.2000    0.0000 H   0  0  0  0  0  0  0  0  0  0  0  0
   -2.1856   -0.5856    0.0000 H   0  0  0  0  0  0  0  0  0  0  0  0
   -0.5857    2.1856    0.0000 H   0  0  0  0  0  0  0  0  0  0  0  0
    1.3856    0.8000    0.0000 C   0  0  0  0  0  0  0  0  0  0  0  0
    2.7712    1.6000    0.0000 C   0  0  0  0  0  0  0  0  0  0  0  0
    4.1569    0.8000    0.0000 C   0  0  0  0  0  0  0  0  0  0  0  0
    5.5426    1.6000    0.0000 H   0  0  0  0  0  0  0  0  0  0  0  0
    4.1569   -0.8000    0.0000 H   0  0  0  0  0  0  0  0  0  0  0  0
    2.7712    3.2000    0.0000 H   0  0  0  0  0  0  0  0  0  0  0  0
    2.1856   -0.5856    0.0000 H   0  0  0  0  0  0  0  0  0  0  0  0
    0.5857    2.1856    0.0000 H   0  0  0  0  0  0  0  0  0  0  0  0
  1  2  1  0  0  0  0
  2  3  1  0  0  0  0
  2  4  1  0  0  0  0
  2  5  1  0  0  0  0
  1  6  2  0  0  0  0
  1  7  1  0  0  0  0
  7  8  1  0  0  0  0
  8  9  1  0  0  0  0
  9 10  2  0  0  0  0
 10 11  1  0  0  0  0
 10 12  1  0  0  0  0
  9 13  1  0  0  0  0
  8 14  1  0  0  0  0
  8 15  1  0  0  0  0
  7 16  1  0  0  0  0
 16 17  1  0  0  0  0
 17 18  2  0  0  0  0
 18 19  1  0  0  0  0
 18 20  1  0  0  0  0
 17 21  1  0  0  0  0
 16 22  1  0  0  0  0
 16 23  1  0  0  0  0
M  END
> <CAS>
93-71-0

> <NAME>
2-CHLORO-N,N-DIALLYLACETAMIDE

> <preferred_name>
Allidochlor

> <iupac>
2-chloro-N,N-di(prop-2-en-1-yl)acetamide

> <SMILES>
C=CCN(CC=C)C(=O)CCl

> <Canonical_QSARr>
C=CCN(CC=C)C(=O)CCl

> <InChI_Code_QSARr>
InChI=1S/C8H12ClNO/c1-3-5-10(6-4-2)8(11)7-9/h3-4H,1-2,5-7H2

> <InChI Key_QSARr>
MDBGGTQNNUOQRC-UHFFFAOYSA-N

> <Salt_Solvent>
?

> <WS Temperature>
25

> <WS Reference>
YALKOWSKY,SH & DANNENFELSER,RM (1992)

> <dsstox_substance_id>
DTXSID2041591

> <LogMolar>
-0.9452

$$$$
93-89-0
  -INDIGO-01081615412D

 21 21  0  0  0  0  0  0  0  0999 V2000
    1.6000    0.0000    0.0000 C   0  0  0  0  0  0  0  0  0  0  0  0
    2.4000   -1.3856    0.0000 O   0  0  0  0  0  0  0  0  0  0  0  0
    4.0000   -1.3856    0.0000 C   0  0  0  0  0  0  0  0  0  0  0  0
    5.6000   -1.3856    0.0000 C   0  0  0  0  0  0  0  0  0  0  0  0
    7.2000   -1.3856    0.0000 H   0  0  0  0  0  0  0  0  0  0  0  0
    6.4000   -2.7713    0.0000 H   0  0  0  0  0  0  0  0  0  0  0  0
    6.4000    0.0000    0.0000 H   0  0  0  0  0  0  0  0  0  0  0  0
    4.0000   -2.9856    0.0000 H   0  0  0  0  0  0  0  0  0  0  0  0
    4.0000    0.2144    0.0000 H   0  0  0  0  0  0  0  0  0  0  0  0
    0.0000    0.0000    0.0000 C   0  0  0  0  0  0  0  0  0  0  0  0
   -0.8000    1.3856    0.0000 C   0  0  0  0  0  0  0  0  0  0  0  0
    0.0000    2.7713    0.0000 H   0  0  0  0  0  0  0  0  0  0  0  0
   -2.4000    1.3856    0.0000 C   0  0  0  0  0  0  0  0  0  0  0  0
   -3.2000    2.7713    0.0000 H   0  0  0  0  0  0  0  0  0  0  0  0
   -3.2000    0.0000    0.0000 C   0  0  0  0  0  0  0  0  0  0  0  0
   -4.8000    0.0000    0.0000 H   0  0  0  0  0  0  0  0  0  0  0  0
   -2.4000   -1.3856    0.0000 C   0  0  0  0  0  0  0  0  0  0  0  0
   -3.2000   -2.7713    0.0000 H   0  0  0  0  0  0  0  0  0  0  0  0
   -0.8000   -1.3856    0.0000 C   0  0  0  0  0  0  0  0  0  0  0  0
    0.0000   -2.7713    0.0000 H   0  0  0  0  0  0  0  0  0  0  0  0
    2.4000    1.3856    0.0000 O   0  0  0  0  0  0  0  0  0  0  0  0
  1  2  1  0  0  0  0
  2  3  1  0  0  0  0
  3  4  1  0  0  0  0
  4  5  1  0  0  0  0
  4  6  1  0  0  0  0
  4  7  1  0  0  0  0
  3  8  1  0  0  0  0
  3  9  1  0  0  0  0
  1 10  1  0  0  0  0
 10 11  4  0  0  0  0
 11 12  1  0  0  0  0
 11 13  4  0  0  0  0
 13 14  1  0  0  0  0
 13 15  4  0  0  0  0
 15 16  1  0  0  0  0
 15 17  4  0  0  0  0
 17 18  1  0  0  0  0
 17 19  4  0  0  0  0
 19 10  4  0  0  0  0
 19 20  1  0  0  0  0
  1 21  2  0  0  0  0
M  END
> <CAS>
93-89-0

> <NAME>
ETHYL BENZOATE

> <preferred_name>
Ethyl benzoate

> <iupac>
ethyl benzoate

> <SMILES>
CCOC(=O)c1ccccc1

> <Canonical_QSARr>
CCOC(=O)c1ccccc1

> <InChI_Code_QSARr>
InChI=1S/C9H10O2/c1-2-11-9(10)8-6-4-3-5-7-8/h3-7H,2H2,1H3

> <InChI Key_QSARr>
MTZQAGJQAFMTAQ-UHFFFAOYSA-N

> <Salt_Solvent>
?

> <WS Temperature>
25

> <WS Reference>
YALKOWSKY,SH & DANNENFELSER,RM (1992)

> <dsstox_substance_id>
DTXSID3038696

> <LogMolar>
-2.3193

$$$$
94-11-1
  -INDIGO-01081615412D

 28 28  0  0  0  0  0  0  0  0999 V2000
   -2.7713    0.0000    0.0000 C   0  0  0  0  0  0  0  0  0  0  0  0
   -4.1570    0.8000    0.0000 C   0  0  0  0  0  0  0  0  0  0  0  0
   -5.5426    1.6000    0.0000 O   0  0  0  0  0  0  0  0  0  0  0  0
   -6.9283    0.8000    0.0000 C   0  0  0  0  0  0  0  0  0  0  0  0
   -8.3138    1.6000    0.0000 C   0  0  0  0  0  0  0  0  0  0  0  0
   -8.3138    3.2000    0.0000 H   0  0  0  0  0  0  0  0  0  0  0  0
   -9.6996    0.8000    0.0000 C   0  0  0  0  0  0  0  0  0  0  0  0
  -11.0851    1.6000    0.0000 H   0  0  0  0  0  0  0  0  0  0  0  0
   -9.6996   -0.8000    0.0000 C   0  0  0  0  0  0  0  0  0  0  0  0
  -11.0851   -1.6000    0.0000 Cl  0  0  0  0  0  0  0  0  0  0  0  0
   -8.3138   -1.6000    0.0000 C   0  0  0  0  0  0  0  0  0  0  0  0
   -8.3138   -3.2000    0.0000 H   0  0  0  0  0  0  0  0  0  0  0  0
   -6.9283   -0.8000    0.0000 C   0  0  0  0  0  0  0  0  0  0  0  0
   -5.5426   -1.6000    0.0000 Cl  0  0  0  0  0  0  0  0  0  0  0  0
   -3.3570    2.1856    0.0000 H   0  0  0  0  0  0  0  0  0  0  0  0
   -4.9569   -0.5856    0.0000 H   0  0  0  0  0  0  0  0  0  0  0  0
   -1.3855    0.8000    0.0000 O   0  0  0  0  0  0  0  0  0  0  0  0
    0.0000    0.0000    0.0000 C   0  0  0  0  0  0  0  0  0  0  0  0
    1.3857   -0.8000    0.0000 C   0  0  0  0  0  0  0  0  0  0  0  0
    2.7713   -1.6000    0.0000 H   0  0  0  0  0  0  0  0  0  0  0  0
    2.7713    0.0000    0.0000 H   0  0  0  0  0  0  0  0  0  0  0  0
    1.3857   -2.4000    0.0000 H   0  0  0  0  0  0  0  0  0  0  0  0
    0.8001    1.3856    0.0000 C   0  0  0  0  0  0  0  0  0  0  0  0
    1.5999    2.7713    0.0000 H   0  0  0  0  0  0  0  0  0  0  0  0
    0.0000    2.7713    0.0000 H   0  0  0  0  0  0  0  0  0  0  0  0
    2.4000    1.3856    0.0000 H   0  0  0  0  0  0  0  0  0  0  0  0
   -0.8001   -1.3856    0.0000 H   0  0  0  0  0  0  0  0  0  0  0  0
   -2.7713   -1.6000    0.0000 O   0  0  0  0  0  0  0  0  0  0  0  0
  1  2  1  0  0  0  0
  2  3  1  0  0  0  0
  3  4  1  0  0  0  0
  4  5  4  0  0  0  0
  5  6  1  0  0  0  0
  5  7  4  0  0  0  0
  7  8  1  0  0  0  0
  7  9  4  0  0  0  0
  9 10  1  0  0  0  0
  9 11  4  0  0  0  0
 11 12  1  0  0  0  0
 11 13  4  0  0  0  0
 13  4  4  0  0  0  0
 13 14  1  0  0  0  0
  2 15  1  0  0  0  0
  2 16  1  0  0  0  0
  1 17  1  0  0  0  0
 17 18  1  0  0  0  0
 18 19  1  0  0  0  0
 19 20  1  0  0  0  0
 19 21  1  0  0  0  0
 19 22  1  0  0  0  0
 18 23  1  0  0  0  0
 23 24  1  0  0  0  0
 23 25  1  0  0  0  0
 23 26  1  0  0  0  0
 18 27  1  0  0  0  0
  1 28  2  0  0  0  0
M  END
> <CAS>
94-11-1

> <NAME>
2,4-D, ISOPROPYL ESTER

> <preferred_name>
2,4-D isopropyl ester

> <iupac>
propan-2-yl (2,4-dichlorophenoxy)acetate

> <SMILES>
CC(C)OC(=O)COc1ccc(Cl)cc1Cl

> <Canonical_QSARr>
CC(C)OC(=O)COc1ccc(Cl)cc1Cl

> <InChI_Code_QSARr>
InChI=1S/C11H12Cl2O3/c1-7(2)16-11(14)6-15-10-4-3-8(12)5-9(10)13/h3-5,7H,6H2,1-2H3

> <InChI Key_QSARr>
WHOKDONDRZNCBC-UHFFFAOYSA-N

> <Salt_Solvent>
?

> <WS Temperature>


> <WS Reference>
YALKOWSKY,SH & DANNENFELSER,RM (1992)

> <dsstox_substance_id>
DTXSID5020445

> <LogMolar>
-3.848

$$$$
94-26-8
  -INDIGO-01081615412D

 28 28  0  0  0  0  0  0  0  0999 V2000
   -3.2001    2.7713    0.0000 O   0  0  0  0  0  0  0  0  0  0  0  0
   -3.9999    1.3857    0.0000 C   0  0  0  0  0  0  0  0  0  0  0  0
   -3.1999    0.0000    0.0000 O   0  0  0  0  0  0  0  0  0  0  0  0
   -1.6000    0.0000    0.0000 C   0  0  0  0  0  0  0  0  0  0  0  0
    0.0001    0.0000    0.0000 C   0  0  0  0  0  0  0  0  0  0  0  0
    1.6000    0.0000    0.0000 C   0  0  0  0  0  0  0  0  0  0  0  0
    3.1999    0.0000    0.0000 C   0  0  0  0  0  0  0  0  0  0  0  0
    4.8000    0.0000    0.0000 H   0  0  0  0  0  0  0  0  0  0  0  0
    3.9999   -1.3857    0.0000 H   0  0  0  0  0  0  0  0  0  0  0  0
    3.9999    1.3857    0.0000 H   0  0  0  0  0  0  0  0  0  0  0  0
    1.6000   -1.6000    0.0000 H   0  0  0  0  0  0  0  0  0  0  0  0
    1.6000    1.6000    0.0000 H   0  0  0  0  0  0  0  0  0  0  0  0
    0.0001   -1.6000    0.0000 H   0  0  0  0  0  0  0  0  0  0  0  0
    0.0001    1.6000    0.0000 H   0  0  0  0  0  0  0  0  0  0  0  0
   -1.6000   -1.6000    0.0000 H   0  0  0  0  0  0  0  0  0  0  0  0
   -1.6000    1.6000    0.0000 H   0  0  0  0  0  0  0  0  0  0  0  0
   -5.6001    1.3857    0.0000 C   0  0  0  0  0  0  0  0  0  0  0  0
   -6.4001    2.7713    0.0000 C   0  0  0  0  0  0  0  0  0  0  0  0
   -5.6001    4.1569    0.0000 H   0  0  0  0  0  0  0  0  0  0  0  0
   -8.0000    2.7713    0.0000 C   0  0  0  0  0  0  0  0  0  0  0  0
   -8.8001    4.1569    0.0000 H   0  0  0  0  0  0  0  0  0  0  0  0
   -8.8001    1.3857    0.0000 C   0  0  0  0  0  0  0  0  0  0  0  0
  -10.3999    1.3857    0.0000 O   0  0  0  0  0  0  0  0  0  0  0  0
  -11.2000    2.7713    0.0000 H   0  0  0  0  0  0  0  0  0  0  0  0
   -8.0000    0.0000    0.0000 C   0  0  0  0  0  0  0  0  0  0  0  0
   -8.8001   -1.3857    0.0000 H   0  0  0  0  0  0  0  0  0  0  0  0
   -6.4001    0.0000    0.0000 C   0  0  0  0  0  0  0  0  0  0  0  0
   -5.6001   -1.3857    0.0000 H   0  0  0  0  0  0  0  0  0  0  0  0
  1  2  2  0  0  0  0
  2  3  1  0  0  0  0
  3  4  1  0  0  0  0
  4  5  1  0  0  0  0
  5  6  1  0  0  0  0
  6  7  1  0  0  0  0
  7  8  1  0  0  0  0
  7  9  1  0  0  0  0
  7 10  1  0  0  0  0
  6 11  1  0  0  0  0
  6 12  1  0  0  0  0
  5 13  1  0  0  0  0
  5 14  1  0  0  0  0
  4 15  1  0  0  0  0
  4 16  1  0  0  0  0
  2 17  1  0  0  0  0
 17 18  4  0  0  0  0
 18 19  1  0  0  0  0
 18 20  4  0  0  0  0
 20 21  1  0  0  0  0
 20 22  4  0  0  0  0
 22 23  1  0  0  0  0
 23 24  1  0  0  0  0
 22 25  4  0  0  0  0
 25 26  1  0  0  0  0
 25 27  4  0  0  0  0
 27 17  4  0  0  0  0
 27 28  1  0  0  0  0
M  END
> <CAS>
94-26-8

> <NAME>
P-HYDROXY BUTYL BENZOATE

> <preferred_name>
Butylparaben

> <iupac>
butyl 4-hydroxybenzoate

> <SMILES>
CCCCOC(=O)c1ccc(O)cc1

> <Canonical_QSARr>
CCCCOC(=O)c1ccc(O)cc1

> <InChI_Code_QSARr>
InChI=1S/C11H14O3/c1-2-3-8-14-11(13)9-4-6-10(12)7-5-9/h4-7,12H,2-3,8H2,1H3

> <InChI Key_QSARr>
QFOHBWFCKVYLES-UHFFFAOYSA-N

> <Salt_Solvent>
?

> <WS Temperature>
20

> <WS Reference>
YALKOWSKY,SH & HE,Y (2003)

> <dsstox_substance_id>
DTXSID3020209

> <LogMolar>
-2.9723

$$$$
94-75-7
  -INDIGO-01081615412D

 19 19  0  0  0  0  0  0  0  0999 V2000
    4.1569   -0.8000    0.0000 C   0  0  0  0  0  0  0  0  0  0  0  0
    2.7712   -0.0000    0.0000 C   0  0  0  0  0  0  0  0  0  0  0  0
    1.3856    0.8000    0.0000 O   0  0  0  0  0  0  0  0  0  0  0  0
    0.0001   -0.0000    0.0000 C   0  0  0  0  0  0  0  0  0  0  0  0
   -1.3856    0.8000    0.0000 C   0  0  0  0  0  0  0  0  0  0  0  0
   -1.3856    2.4000    0.0000 H   0  0  0  0  0  0  0  0  0  0  0  0
   -2.7713   -0.0000    0.0000 C   0  0  0  0  0  0  0  0  0  0  0  0
   -4.1569    0.8000    0.0000 H   0  0  0  0  0  0  0  0  0  0  0  0
   -2.7713   -1.6000    0.0000 C   0  0  0  0  0  0  0  0  0  0  0  0
   -4.1569   -2.4000    0.0000 Cl  0  0  0  0  0  0  0  0  0  0  0  0
   -1.3856   -2.4000    0.0000 C   0  0  0  0  0  0  0  0  0  0  0  0
   -1.3856   -4.0000    0.0000 H   0  0  0  0  0  0  0  0  0  0  0  0
    0.0001   -1.6000    0.0000 C   0  0  0  0  0  0  0  0  0  0  0  0
    1.3856   -2.4000    0.0000 Cl  0  0  0  0  0  0  0  0  0  0  0  0
    3.5713    1.3856    0.0000 H   0  0  0  0  0  0  0  0  0  0  0  0
    1.9713   -1.3856    0.0000 H   0  0  0  0  0  0  0  0  0  0  0  0
    5.5425   -0.0000    0.0000 O   0  0  0  0  0  0  0  0  0  0  0  0
    6.9282   -0.8000    0.0000 H   0  0  0  0  0  0  0  0  0  0  0  0
    4.1569   -2.4000    0.0000 O   0  0  0  0  0  0  0  0  0  0  0  0
  1  2  1  0  0  0  0
  2  3  1  0  0  0  0
  3  4  1  0  0  0  0
  4  5  4  0  0  0  0
  5  6  1  0  0  0  0
  5  7  4  0  0  0  0
  7  8  1  0  0  0  0
  7  9  4  0  0  0  0
  9 10  1  0  0  0  0
  9 11  4  0  0  0  0
 11 12  1  0  0  0  0
 11 13  4  0  0  0  0
 13  4  4  0  0  0  0
 13 14  1  0  0  0  0
  2 15  1  0  0  0  0
  2 16  1  0  0  0  0
  1 17  1  0  0  0  0
 17 18  1  0  0  0  0
  1 19  2  0  0  0  0
M  END
> <CAS>
94-75-7

> <NAME>
2,4-DICHLOROPHENOXYACETIC ACID

> <preferred_name>
2,4-Dichlorophenoxyacetic acid

> <iupac>
(2,4-dichlorophenoxy)acetic acid

> <SMILES>
OC(=O)COc1ccc(Cl)cc1Cl

> <Canonical_QSARr>
OC(=O)COc1ccc(Cl)cc1Cl

> <InChI_Code_QSARr>
InChI=1S/C8H6Cl2O3/c9-5-1-2-7(6(10)3-5)13-4-8(11)12/h1-3H,4H2,(H,11,12)

> <InChI Key_QSARr>
OVSKIKFHRZPJSS-UHFFFAOYSA-N

> <Salt_Solvent>
?

> <WS Temperature>
25

> <WS Reference>
YALKOWSKY,SH & DANNENFELSER,RM (1992)

> <dsstox_substance_id>
DTXSID0020442

> <LogMolar>
-2.5139

$$$$
94-82-6
  -INDIGO-01081615412D

 25 25  0  0  0  0  0  0  0  0999 V2000
    5.5426    1.6000    0.0000 C   0  0  0  0  0  0  0  0  0  0  0  0
    5.5426    3.2000    0.0000 Cl  0  0  0  0  0  0  0  0  0  0  0  0
    4.1570    0.8000    0.0000 C   0  0  0  0  0  0  0  0  0  0  0  0
    2.7713    1.6000    0.0000 O   0  0  0  0  0  0  0  0  0  0  0  0
    1.3857    0.8000    0.0000 C   0  0  0  0  0  0  0  0  0  0  0  0
    0.0000   -0.0000    0.0000 C   0  0  0  0  0  0  0  0  0  0  0  0
   -1.3855   -0.8000    0.0000 C   0  0  0  0  0  0  0  0  0  0  0  0
   -2.7713   -1.6000    0.0000 C   0  0  0  0  0  0  0  0  0  0  0  0
   -2.7713   -3.2000    0.0000 O   0  0  0  0  0  0  0  0  0  0  0  0
   -4.1568   -0.8000    0.0000 O   0  0  0  0  0  0  0  0  0  0  0  0
   -5.5426   -1.6000    0.0000 H   0  0  0  0  0  0  0  0  0  0  0  0
   -2.1856    0.5856    0.0000 H   0  0  0  0  0  0  0  0  0  0  0  0
   -0.5857   -2.1856    0.0000 H   0  0  0  0  0  0  0  0  0  0  0  0
   -0.8001    1.3856    0.0000 H   0  0  0  0  0  0  0  0  0  0  0  0
    0.8001   -1.3856    0.0000 H   0  0  0  0  0  0  0  0  0  0  0  0
    0.5857    2.1856    0.0000 H   0  0  0  0  0  0  0  0  0  0  0  0
    2.1856   -0.5856    0.0000 H   0  0  0  0  0  0  0  0  0  0  0  0
    4.1570   -0.8000    0.0000 C   0  0  0  0  0  0  0  0  0  0  0  0
    2.7713   -1.6000    0.0000 H   0  0  0  0  0  0  0  0  0  0  0  0
    5.5426   -1.6000    0.0000 C   0  0  0  0  0  0  0  0  0  0  0  0
    5.5426   -3.2000    0.0000 H   0  0  0  0  0  0  0  0  0  0  0  0
    6.9281   -0.8000    0.0000 C   0  0  0  0  0  0  0  0  0  0  0  0
    8.3138   -1.6000    0.0000 Cl  0  0  0  0  0  0  0  0  0  0  0  0
    6.9283    0.8000    0.0000 C   0  0  0  0  0  0  0  0  0  0  0  0
    8.3138    1.6000    0.0000 H   0  0  0  0  0  0  0  0  0  0  0  0
  1  2  1  0  0  0  0
  1  3  4  0  0  0  0
  3  4  1  0  0  0  0
  4  5  1  0  0  0  0
  5  6  1  0  0  0  0
  6  7  1  0  0  0  0
  7  8  1  0  0  0  0
  8  9  2  0  0  0  0
  8 10  1  0  0  0  0
 10 11  1  0  0  0  0
  7 12  1  0  0  0  0
  7 13  1  0  0  0  0
  6 14  1  0  0  0  0
  6 15  1  0  0  0  0
  5 16  1  0  0  0  0
  5 17  1  0  0  0  0
  3 18  4  0  0  0  0
 18 19  1  0  0  0  0
 18 20  4  0  0  0  0
 20 21  1  0  0  0  0
 20 22  4  0  0  0  0
 22 23  1  0  0  0  0
 22 24  4  0  0  0  0
 24  1  4  0  0  0  0
 24 25  1  0  0  0  0
M  END
> <CAS>
94-82-6

> <NAME>
2,4-DB

> <preferred_name>
2,4-DB

> <iupac>
4-(2,4-dichlorophenoxy)butanoic acid

> <SMILES>
OC(=O)CCCOc1ccc(Cl)cc1Cl

> <Canonical_QSARr>
OC(=O)CCCOc1ccc(Cl)cc1Cl

> <InChI_Code_QSARr>
InChI=1S/C10H10Cl2O3/c11-7-3-4-9(8(12)6-7)15-5-1-2-10(13)14/h3-4,6H,1-2,5H2,(H,13,14)

> <InChI Key_QSARr>
YIVXMZJTEQBPQO-UHFFFAOYSA-N

> <Salt_Solvent>
?

> <WS Temperature>
25

> <WS Reference>
TOMLIN,C (1994)

> <dsstox_substance_id>
DTXSID7024035

> <LogMolar>
-3.6721

$$$$
95-14-7
  -INDIGO-01081615412D

 14 15  0  0  0  0  0  0  0  0999 V2000
    1.5651   -0.3327    0.0000 N   0  0  0  1  0  0  0  0  0  0  0  0
    1.7323   -1.9239    0.0000 N   0  0  0  1  0  0  0  0  0  0  0  0
    0.2706   -2.5746    0.0000 N   0  0  0  1  0  0  0  0  0  0  0  0
   -0.8000   -1.3856    0.0000 C   0  0  0  0  0  0  0  0  0  0  0  0
   -2.4000   -1.3856    0.0000 C   0  0  0  0  0  0  0  0  0  0  0  0
   -3.2000   -0.0000    0.0000 C   0  0  0  0  0  0  0  0  0  0  0  0
   -2.4000    1.3856    0.0000 C   0  0  0  0  0  0  0  0  0  0  0  0
   -0.8000    1.3856    0.0000 C   0  0  0  0  0  0  0  0  0  0  0  0
   -0.0000    2.7713    0.0000 H   0  0  0  0  0  0  0  0  0  0  0  0
   -0.0000   -0.0000    0.0000 C   0  0  0  0  0  0  0  0  0  0  0  0
   -3.2000    2.7713    0.0000 H   0  0  0  0  0  0  0  0  0  0  0  0
   -4.8000   -0.0000    0.0000 H   0  0  0  0  0  0  0  0  0  0  0  0
   -3.2000   -2.7713    0.0000 H   0  0  0  0  0  0  0  0  0  0  0  0
    2.7541    0.7380    0.0000 H   0  0  0  0  0  0  0  0  0  0  0  0
  1  2  4  0  0  0  0
  2  3  4  0  0  0  0
  3  4  4  0  0  0  0
  4  5  4  0  0  0  0
  5  6  4  0  0  0  0
  6  7  4  0  0  0  0
  7  8  4  0  0  0  0
  8  9  1  0  0  0  0
  8 10  4  0  0  0  0
 10  1  4  0  0  0  0
 10  4  4  0  0  0  0
  7 11  1  0  0  0  0
  6 12  1  0  0  0  0
  5 13  1  0  0  0  0
  1 14  1  0  0  0  0
M  END
> <CAS>
95-14-7

> <NAME>
1H-BENZOTRIAZOLE

> <preferred_name>
1,2,3-Benzotriazole

> <iupac>
1H-benzotriazole

> <SMILES>
c1cccc2[nH][n][n]c21

> <Canonical_QSARr>
c1cccc2[nH][n][n]c21

> <InChI_Code_QSARr>
InChI=1S/C6H5N3/c1-2-4-6-5(3-1)7-9-8-6/h1-4H,(H,7,8,9)

> <InChI Key_QSARr>
QRUDEWIWKLJBPS-UHFFFAOYSA-N

> <Salt_Solvent>
?

> <WS Temperature>
25

> <WS Reference>
DAVIS,LN ET AL. (1977)

> <dsstox_substance_id>
DTXSID6020147

> <LogMolar>
-0.7794

$$$$
95-47-6
  -INDIGO-01081615412D

 18 18  0  0  0  0  0  0  0  0999 V2000
   -1.3856    0.8000    0.0000 C   0  0  0  0  0  0  0  0  0  0  0  0
   -2.7713   -0.0000    0.0000 C   0  0  0  0  0  0  0  0  0  0  0  0
   -4.1569    0.8000    0.0000 H   0  0  0  0  0  0  0  0  0  0  0  0
   -2.7713   -1.6000    0.0000 C   0  0  0  0  0  0  0  0  0  0  0  0
   -4.1569   -2.4000    0.0000 H   0  0  0  0  0  0  0  0  0  0  0  0
   -1.3856   -2.4000    0.0000 C   0  0  0  0  0  0  0  0  0  0  0  0
   -1.3856   -4.0000    0.0000 H   0  0  0  0  0  0  0  0  0  0  0  0
    0.0000   -1.6000    0.0000 C   0  0  0  0  0  0  0  0  0  0  0  0
    1.3856   -2.4000    0.0000 C   0  0  0  0  0  0  0  0  0  0  0  0
    2.7713   -3.2000    0.0000 H   0  0  0  0  0  0  0  0  0  0  0  0
    1.3856   -4.0000    0.0000 H   0  0  0  0  0  0  0  0  0  0  0  0
    2.7713   -1.6000    0.0000 H   0  0  0  0  0  0  0  0  0  0  0  0
    0.0000   -0.0000    0.0000 C   0  0  0  0  0  0  0  0  0  0  0  0
    1.3856    0.8000    0.0000 C   0  0  0  0  0  0  0  0  0  0  0  0
    2.7713    1.6000    0.0000 H   0  0  0  0  0  0  0  0  0  0  0  0
    1.3856    2.4000    0.0000 H   0  0  0  0  0  0  0  0  0  0  0  0
    2.7713   -0.0000    0.0000 H   0  0  0  0  0  0  0  0  0  0  0  0
   -1.3856    2.4000    0.0000 H   0  0  0  0  0  0  0  0  0  0  0  0
  1  2  4  0  0  0  0
  2  3  1  0  0  0  0
  2  4  4  0  0  0  0
  4  5  1  0  0  0  0
  4  6  4  0  0  0  0
  6  7  1  0  0  0  0
  6  8  4  0  0  0  0
  8  9  1  0  0  0  0
  9 10  1  0  0  0  0
  9 11  1  0  0  0  0
  9 12  1  0  0  0  0
  8 13  4  0  0  0  0
 13  1  4  0  0  0  0
 13 14  1  0  0  0  0
 14 15  1  0  0  0  0
 14 16  1  0  0  0  0
 14 17  1  0  0  0  0
  1 18  1  0  0  0  0
M  END
> <CAS>
95-47-6

> <NAME>
O-XYLENE

> <preferred_name>
o-Xylene

> <iupac>
C8H10

> <SMILES>
Cc1ccccc1C

> <Canonical_QSARr>
Cc1ccccc1C

> <InChI_Code_QSARr>
InChI=1S/C8H10/c1-7-5-3-4-6-8(7)2/h3-6H,1-2H3

> <InChI Key_QSARr>
CTQNGGLPUBDAKN-UHFFFAOYSA-N

> <Salt_Solvent>
?

> <WS Temperature>
25

> <WS Reference>
SANEMASA,I ET AL. (1982)

> <dsstox_substance_id>
DTXSID3021807

> <LogMolar>
-2.7756

$$$$
95-51-2
  -INDIGO-01081615412D

 14 14  0  0  0  0  0  0  0  0999 V2000
    1.6000    0.0000    0.0000 N   0  0  0  0  0  0  0  0  0  0  0  0
    0.0000   -0.0000    0.0000 C   0  0  0  0  0  0  0  0  0  0  0  0
   -0.8000    1.3856    0.0000 C   0  0  0  0  0  0  0  0  0  0  0  0
    0.0000    2.7713    0.0000 H   0  0  0  0  0  0  0  0  0  0  0  0
   -2.4000    1.3856    0.0000 C   0  0  0  0  0  0  0  0  0  0  0  0
   -3.2000    2.7713    0.0000 H   0  0  0  0  0  0  0  0  0  0  0  0
   -3.2000   -0.0000    0.0000 C   0  0  0  0  0  0  0  0  0  0  0  0
   -4.8000   -0.0000    0.0000 H   0  0  0  0  0  0  0  0  0  0  0  0
   -2.4000   -1.3856    0.0000 C   0  0  0  0  0  0  0  0  0  0  0  0
   -3.2000   -2.7713    0.0000 H   0  0  0  0  0  0  0  0  0  0  0  0
   -0.8000   -1.3856    0.0000 C   0  0  0  0  0  0  0  0  0  0  0  0
    0.0000   -2.7713    0.0000 Cl  0  0  0  0  0  0  0  0  0  0  0  0
    2.4000   -1.3856    0.0000 H   0  0  0  0  0  0  0  0  0  0  0  0
    2.4000    1.3856    0.0000 H   0  0  0  0  0  0  0  0  0  0  0  0
  1  2  1  0  0  0  0
  2  3  4  0  0  0  0
  3  4  1  0  0  0  0
  3  5  4  0  0  0  0
  5  6  1  0  0  0  0
  5  7  4  0  0  0  0
  7  8  1  0  0  0  0
  7  9  4  0  0  0  0
  9 10  1  0  0  0  0
  9 11  4  0  0  0  0
 11  2  4  0  0  0  0
 11 12  1  0  0  0  0
  1 13  1  0  0  0  0
  1 14  1  0  0  0  0
M  END
> <CAS>
95-51-2

> <NAME>
2-CHLOROANILINE

> <preferred_name>
2-Chloroaniline

> <iupac>
2-chloroaniline

> <SMILES>
Nc1ccccc1Cl

> <Canonical_QSARr>
Nc1ccccc1Cl

> <InChI_Code_QSARr>
InChI=1S/C6H6ClN/c7-5-3-1-2-4-6(5)8/h1-4H,8H2

> <InChI Key_QSARr>
AKCRQHGQIJBRMN-UHFFFAOYSA-N

> <Salt_Solvent>
?

> <WS Temperature>
25

> <WS Reference>
HUYSKENS,P ET AL. (1975)

> <dsstox_substance_id>
DTXSID2021810

> <LogMolar>
-1.1941

$$$$
95-57-8
  -INDIGO-01081615412D

 13 13  0  0  0  0  0  0  0  0999 V2000
    1.6000    0.0000    0.0000 O   0  0  0  0  0  0  0  0  0  0  0  0
    0.0000   -0.0000    0.0000 C   0  0  0  0  0  0  0  0  0  0  0  0
   -0.8000    1.3856    0.0000 C   0  0  0  0  0  0  0  0  0  0  0  0
    0.0000    2.7713    0.0000 Cl  0  0  0  0  0  0  0  0  0  0  0  0
   -2.4000    1.3856    0.0000 C   0  0  0  0  0  0  0  0  0  0  0  0
   -3.2000    2.7713    0.0000 H   0  0  0  0  0  0  0  0  0  0  0  0
   -3.2000   -0.0000    0.0000 C   0  0  0  0  0  0  0  0  0  0  0  0
   -4.8000   -0.0000    0.0000 H   0  0  0  0  0  0  0  0  0  0  0  0
   -2.4000   -1.3856    0.0000 C   0  0  0  0  0  0  0  0  0  0  0  0
   -3.2000   -2.7713    0.0000 H   0  0  0  0  0  0  0  0  0  0  0  0
   -0.8000   -1.3856    0.0000 C   0  0  0  0  0  0  0  0  0  0  0  0
    0.0000   -2.7713    0.0000 H   0  0  0  0  0  0  0  0  0  0  0  0
    2.4000   -1.3856    0.0000 H   0  0  0  0  0  0  0  0  0  0  0  0
  1  2  1  0  0  0  0
  2  3  4  0  0  0  0
  3  4  1  0  0  0  0
  3  5  4  0  0  0  0
  5  6  1  0  0  0  0
  5  7  4  0  0  0  0
  7  8  1  0  0  0  0
  7  9  4  0  0  0  0
  9 10  1  0  0  0  0
  9 11  4  0  0  0  0
 11  2  4  0  0  0  0
 11 12  1  0  0  0  0
  1 13  1  0  0  0  0
M  END
> <CAS>
95-57-8

> <NAME>
2-CHLOROPHENOL

> <preferred_name>
2-Chlorophenol

> <iupac>
2-chlorophenol

> <SMILES>
Oc1ccccc1Cl

> <Canonical_QSARr>
Oc1ccccc1Cl

> <InChI_Code_QSARr>
InChI=1S/C6H5ClO/c7-5-3-1-2-4-6(5)8/h1-4,8H

> <InChI Key_QSARr>
ISPYQTSUDJAMAB-UHFFFAOYSA-N

> <Salt_Solvent>
?

> <WS Temperature>
25

> <WS Reference>
BANERJEE,S ET AL. (1980)

> <dsstox_substance_id>
DTXSID5021544

> <LogMolar>
-1.056

$$$$
95-75-0
  -INDIGO-01081615412D

 15 15  0  0  0  0  0  0  0  0999 V2000
    1.6000    0.0000    0.0000 C   0  0  0  0  0  0  0  0  0  0  0  0
    0.0000   -0.0000    0.0000 C   0  0  0  0  0  0  0  0  0  0  0  0
   -0.8001    1.3856    0.0000 C   0  0  0  0  0  0  0  0  0  0  0  0
    0.0000    2.7713    0.0000 H   0  0  0  0  0  0  0  0  0  0  0  0
   -2.4001    1.3856    0.0000 C   0  0  0  0  0  0  0  0  0  0  0  0
   -3.2000    2.7713    0.0000 H   0  0  0  0  0  0  0  0  0  0  0  0
   -3.2000   -0.0000    0.0000 C   0  0  0  0  0  0  0  0  0  0  0  0
   -4.8000   -0.0000    0.0000 Cl  0  0  0  0  0  0  0  0  0  0  0  0
   -2.4001   -1.3856    0.0000 C   0  0  0  0  0  0  0  0  0  0  0  0
   -3.2000   -2.7713    0.0000 Cl  0  0  0  0  0  0  0  0  0  0  0  0
   -0.8001   -1.3856    0.0000 C   0  0  0  0  0  0  0  0  0  0  0  0
    0.0000   -2.7713    0.0000 H   0  0  0  0  0  0  0  0  0  0  0  0
    3.2000    0.0000    0.0000 H   0  0  0  0  0  0  0  0  0  0  0  0
    2.4001    1.3856    0.0000 H   0  0  0  0  0  0  0  0  0  0  0  0
    2.4001   -1.3856    0.0000 H   0  0  0  0  0  0  0  0  0  0  0  0
  1  2  1  0  0  0  0
  2  3  4  0  0  0  0
  3  4  1  0  0  0  0
  3  5  4  0  0  0  0
  5  6  1  0  0  0  0
  5  7  4  0  0  0  0
  7  8  1  0  0  0  0
  7  9  4  0  0  0  0
  9 10  1  0  0  0  0
  9 11  4  0  0  0  0
 11  2  4  0  0  0  0
 11 12  1  0  0  0  0
  1 13  1  0  0  0  0
  1 14  1  0  0  0  0
  1 15  1  0  0  0  0
M  END
> <CAS>
95-75-0

> <NAME>
3,4-DICHLOROTOLUENE

> <preferred_name>
3,4-Dichlorotoluene

> <iupac>
1,2-dichloro-4-methylbenzene

> <SMILES>
Cc1cc(Cl)c(Cl)cc1

> <Canonical_QSARr>
Cc1cc(Cl)c(Cl)cc1

> <InChI_Code_QSARr>
InChI=1S/C7H6Cl2/c1-5-2-3-6(8)7(9)4-5/h2-4H,1H3

> <InChI Key_QSARr>
WYUIWKFIFOJVKW-UHFFFAOYSA-N

> <Salt_Solvent>
?

> <WS Temperature>
30

> <WS Reference>
RIDDICK,JA ET AL. (1986)

> <dsstox_substance_id>
DTXSID2021814

> <LogMolar>
-3.7919

$$$$
95-87-4
  -INDIGO-01081615412D

 19 19  0  0  0  0  0  0  0  0999 V2000
    1.3857    2.4000    0.0000 O   0  0  0  0  0  0  0  0  0  0  0  0
    0.0000    1.6000    0.0000 C   0  0  0  0  0  0  0  0  0  0  0  0
   -1.3857    2.4000    0.0000 C   0  0  0  0  0  0  0  0  0  0  0  0
   -1.3857    4.0000    0.0000 H   0  0  0  0  0  0  0  0  0  0  0  0
   -2.7713    1.6000    0.0000 C   0  0  0  0  0  0  0  0  0  0  0  0
   -4.1569    2.4000    0.0000 C   0  0  0  0  0  0  0  0  0  0  0  0
   -5.5426    3.2000    0.0000 H   0  0  0  0  0  0  0  0  0  0  0  0
   -5.5426    1.6000    0.0000 H   0  0  0  0  0  0  0  0  0  0  0  0
   -4.1569    4.0000    0.0000 H   0  0  0  0  0  0  0  0  0  0  0  0
   -2.7713    0.0000    0.0000 C   0  0  0  0  0  0  0  0  0  0  0  0
   -4.1569   -0.8000    0.0000 H   0  0  0  0  0  0  0  0  0  0  0  0
   -1.3856   -0.8000    0.0000 C   0  0  0  0  0  0  0  0  0  0  0  0
   -1.3856   -2.4000    0.0000 H   0  0  0  0  0  0  0  0  0  0  0  0
    0.0000    0.0000    0.0000 C   0  0  0  0  0  0  0  0  0  0  0  0
    1.3857   -0.8000    0.0000 C   0  0  0  0  0  0  0  0  0  0  0  0
    2.7713   -1.6000    0.0000 H   0  0  0  0  0  0  0  0  0  0  0  0
    1.3857   -2.4000    0.0000 H   0  0  0  0  0  0  0  0  0  0  0  0
    2.7713    0.0000    0.0000 H   0  0  0  0  0  0  0  0  0  0  0  0
    1.3856    4.0000    0.0000 H   0  0  0  0  0  0  0  0  0  0  0  0
  1  2  1  0  0  0  0
  2  3  4  0  0  0  0
  3  4  1  0  0  0  0
  3  5  4  0  0  0  0
  5  6  1  0  0  0  0
  6  7  1  0  0  0  0
  6  8  1  0  0  0  0
  6  9  1  0  0  0  0
  5 10  4  0  0  0  0
 10 11  1  0  0  0  0
 10 12  4  0  0  0  0
 12 13  1  0  0  0  0
 12 14  4  0  0  0  0
 14  2  4  0  0  0  0
 14 15  1  0  0  0  0
 15 16  1  0  0  0  0
 15 17  1  0  0  0  0
 15 18  1  0  0  0  0
  1 19  1  0  0  0  0
M  END
> <CAS>
95-87-4

> <NAME>
2,5-DIMETHYLPHENOL

> <preferred_name>
2,5-Dimethylphenol

> <iupac>
2,5-dimethylphenol

> <SMILES>
Cc1cc(O)c(C)cc1

> <Canonical_QSARr>
Cc1cc(O)c(C)cc1

> <InChI_Code_QSARr>
InChI=1S/C8H10O/c1-6-3-4-7(2)8(9)5-6/h3-5,9H,1-2H3

> <InChI Key_QSARr>
NKTOLZVEWDHZMU-UHFFFAOYSA-N

> <Salt_Solvent>
?

> <WS Temperature>
25

> <WS Reference>
YALKOWSKY,SH & DANNENFELSER,RM (1992)

> <dsstox_substance_id>
DTXSID6025145

> <LogMolar>
-1.538

$$$$
95-95-4
  -INDIGO-01081615412D

 13 13  0  0  0  0  0  0  0  0999 V2000
   -2.4000    1.3856    0.0000 Cl  0  0  0  0  0  0  0  0  0  0  0  0
   -1.6000   -0.0000    0.0000 C   0  0  0  0  0  0  0  0  0  0  0  0
   -2.4000   -1.3857    0.0000 C   0  0  0  0  0  0  0  0  0  0  0  0
   -4.0000   -1.3857    0.0000 H   0  0  0  0  0  0  0  0  0  0  0  0
   -1.6000   -2.7713    0.0000 C   0  0  0  0  0  0  0  0  0  0  0  0
   -2.4000   -4.1569    0.0000 Cl  0  0  0  0  0  0  0  0  0  0  0  0
   -0.0000   -2.7713    0.0000 C   0  0  0  0  0  0  0  0  0  0  0  0
    0.8000   -4.1569    0.0000 Cl  0  0  0  0  0  0  0  0  0  0  0  0
    0.8000   -1.3857    0.0000 C   0  0  0  0  0  0  0  0  0  0  0  0
    2.4000   -1.3857    0.0000 H   0  0  0  0  0  0  0  0  0  0  0  0
   -0.0000   -0.0000    0.0000 C   0  0  0  0  0  0  0  0  0  0  0  0
    0.8000    1.3856    0.0000 O   0  0  0  0  0  0  0  0  0  0  0  0
    2.4000    1.3856    0.0000 H   0  0  0  0  0  0  0  0  0  0  0  0
  1  2  1  0  0  0  0
  2  3  4  0  0  0  0
  3  4  1  0  0  0  0
  3  5  4  0  0  0  0
  5  6  1  0  0  0  0
  5  7  4  0  0  0  0
  7  8  1  0  0  0  0
  7  9  4  0  0  0  0
  9 10  1  0  0  0  0
  9 11  4  0  0  0  0
 11  2  4  0  0  0  0
 11 12  1  0  0  0  0
 12 13  1  0  0  0  0
M  END
> <CAS>
95-95-4

> <NAME>
2,4,5-TRICHLOROPHENOL

> <preferred_name>
2,4,5-Trichlorophenol

> <iupac>
C6H3Cl3O

> <SMILES>
Oc1cc(Cl)c(Cl)cc1Cl

> <Canonical_QSARr>
Oc1cc(Cl)c(Cl)cc1Cl

> <InChI_Code_QSARr>
InChI=1S/C6H3Cl3O/c7-3-1-5(9)6(10)2-4(3)8/h1-2,10H

> <InChI Key_QSARr>
LHJGJYXLEPZJPM-UHFFFAOYSA-N

> <Salt_Solvent>
?

> <WS Temperature>
25

> <WS Reference>
LEUENBERGER,C ET AL. (1985A)

> <dsstox_substance_id>
DTXSID4024359

> <LogMolar>
-2.2163

$$$$
96-14-0
  -INDIGO-01081615412D

 20 19  0  0  0  0  0  0  0  0999 V2000
    0.0001    0.0000    0.0000 C   0  0  0  0  0  0  0  0  0  0  0  0
    0.0001    1.6000    0.0000 C   0  0  0  0  0  0  0  0  0  0  0  0
   -0.0001    3.2000    0.0000 H   0  0  0  0  0  0  0  0  0  0  0  0
    1.3857    2.4000    0.0000 H   0  0  0  0  0  0  0  0  0  0  0  0
   -1.3857    2.4000    0.0000 H   0  0  0  0  0  0  0  0  0  0  0  0
   -1.5757   -0.2779    0.0000 C   0  0  0  0  0  0  0  0  0  0  0  0
   -3.1515   -0.5557    0.0000 C   0  0  0  0  0  0  0  0  0  0  0  0
   -4.7271   -0.8335    0.0000 H   0  0  0  0  0  0  0  0  0  0  0  0
   -3.6986   -2.0592    0.0000 H   0  0  0  0  0  0  0  0  0  0  0  0
   -4.1799    0.6700    0.0000 H   0  0  0  0  0  0  0  0  0  0  0  0
   -1.2978   -1.8535    0.0000 H   0  0  0  0  0  0  0  0  0  0  0  0
   -2.1229    1.2257    0.0000 H   0  0  0  0  0  0  0  0  0  0  0  0
    1.5757   -0.2779    0.0000 C   0  0  0  0  0  0  0  0  0  0  0  0
    3.1515   -0.5557    0.0000 C   0  0  0  0  0  0  0  0  0  0  0  0
    4.7271   -0.8335    0.0000 H   0  0  0  0  0  0  0  0  0  0  0  0
    3.6986   -2.0592    0.0000 H   0  0  0  0  0  0  0  0  0  0  0  0
    4.1799    0.6700    0.0000 H   0  0  0  0  0  0  0  0  0  0  0  0
    1.2978   -1.8535    0.0000 H   0  0  0  0  0  0  0  0  0  0  0  0
    1.8535    1.2978    0.0000 H   0  0  0  0  0  0  0  0  0  0  0  0
    0.0001   -1.6000    0.0000 H   0  0  0  0  0  0  0  0  0  0  0  0
  1  2  1  0  0  0  0
  2  3  1  0  0  0  0
  2  4  1  0  0  0  0
  2  5  1  0  0  0  0
  1  6  1  0  0  0  0
  6  7  1  0  0  0  0
  7  8  1  0  0  0  0
  7  9  1  0  0  0  0
  7 10  1  0  0  0  0
  6 11  1  0  0  0  0
  6 12  1  0  0  0  0
  1 13  1  0  0  0  0
 13 14  1  0  0  0  0
 14 15  1  0  0  0  0
 14 16  1  0  0  0  0
 14 17  1  0  0  0  0
 13 18  1  0  0  0  0
 13 19  1  0  0  0  0
  1 20  1  0  0  0  0
M  END
> <CAS>
96-14-0

> <NAME>
3-METHYLPENTANE

> <preferred_name>
3-Methylpentane

> <iupac>
3-methylpentane

> <SMILES>
CC(CC)CC

> <Canonical_QSARr>
CC(CC)CC

> <InChI_Code_QSARr>
InChI=1S/C6H14/c1-4-6(3)5-2/h6H,4-5H2,1-3H3

> <InChI Key_QSARr>
PFEOZHBOMNWTJB-UHFFFAOYSA-N

> <Salt_Solvent>
?

> <WS Temperature>
25

> <WS Reference>
YALKOWSKY,SH & HE,Y (2003)

> <dsstox_substance_id>
DTXSID8052647

> <LogMolar>
-3.6826

$$$$
96-34-4
  -INDIGO-01081615412D

 11 10  0  0  0  0  0  0  0  0999 V2000
    1.3856   -0.8000    0.0000 C   0  0  0  0  0  0  0  0  0  0  0  0
   -0.0000    0.0000    0.0000 C   0  0  0  0  0  0  0  0  0  0  0  0
   -1.3856    0.8000    0.0000 Cl  0  0  0  0  0  0  0  0  0  0  0  0
   -0.0000    1.6000    0.0000 H   0  0  0  0  0  0  0  0  0  0  0  0
   -1.3856   -0.8000    0.0000 H   0  0  0  0  0  0  0  0  0  0  0  0
    2.7713    0.0000    0.0000 O   0  0  0  0  0  0  0  0  0  0  0  0
    4.1569   -0.8000    0.0000 C   0  0  0  0  0  0  0  0  0  0  0  0
    5.5426   -1.6000    0.0000 H   0  0  0  0  0  0  0  0  0  0  0  0
    5.5426    0.0000    0.0000 H   0  0  0  0  0  0  0  0  0  0  0  0
    4.1569   -2.4000    0.0000 H   0  0  0  0  0  0  0  0  0  0  0  0
    1.3856   -2.4000    0.0000 O   0  0  0  0  0  0  0  0  0  0  0  0
  1  2  1  0  0  0  0
  2  3  1  0  0  0  0
  2  4  1  0  0  0  0
  2  5  1  0  0  0  0
  1  6  1  0  0  0  0
  6  7  1  0  0  0  0
  7  8  1  0  0  0  0
  7  9  1  0  0  0  0
  7 10  1  0  0  0  0
  1 11  2  0  0  0  0
M  END
> <CAS>
96-34-4

> <NAME>
METHYL CHLOROACETATE

> <preferred_name>
Methyl chloroacetate

> <iupac>
methyl chloroacetate

> <SMILES>
COC(=O)CCl

> <Canonical_QSARr>
COC(=O)CCl

> <InChI_Code_QSARr>
InChI=1S/C3H5ClO2/c1-6-3(5)2-4/h2H2,1H3

> <InChI Key_QSARr>
QABLOFMHHSOFRJ-UHFFFAOYSA-N

> <Salt_Solvent>
?

> <WS Temperature>
25

> <WS Reference>
CHEMICALS INSPECTION AND TESTING INSTITU (1992)

> <dsstox_substance_id>
DTXSID9041576

> <LogMolar>
-0.3728

$$$$
96-48-0
  -INDIGO-01081615412D

 12 12  0  0  0  0  0  0  0  0999 V2000
    2.8161    3.0349    0.0000 O   0  0  0  0  0  0  0  0  0  0  0  0
    1.5217    2.0944    0.0000 C   0  0  0  0  0  0  0  0  0  0  0  0
    0.0000    2.5888    0.0000 O   0  0  0  0  0  0  0  0  0  0  0  0
   -0.9405    1.2944    0.0000 C   0  0  0  0  0  0  0  0  0  0  0  0
   -2.1295    2.3650    0.0000 H   0  0  0  0  0  0  0  0  0  0  0  0
   -2.1295    0.2238    0.0000 H   0  0  0  0  0  0  0  0  0  0  0  0
    0.0000   -0.0000    0.0000 C   0  0  0  0  0  0  0  0  0  0  0  0
   -1.3856   -0.8000    0.0000 H   0  0  0  0  0  0  0  0  0  0  0  0
    0.6508   -1.4617    0.0000 H   0  0  0  0  0  0  0  0  0  0  0  0
    1.5217    0.4944    0.0000 C   0  0  0  0  0  0  0  0  0  0  0  0
    1.8544   -1.0706    0.0000 H   0  0  0  0  0  0  0  0  0  0  0  0
    3.1129    0.6617    0.0000 H   0  0  0  0  0  0  0  0  0  0  0  0
  1  2  2  0  0  0  0
  2  3  1  0  0  0  0
  3  4  1  0  0  0  0
  4  5  1  0  0  0  0
  4  6  1  0  0  0  0
  4  7  1  0  0  0  0
  7  8  1  0  0  0  0
  7  9  1  0  0  0  0
  7 10  1  0  0  0  0
 10  2  1  0  0  0  0
 10 11  1  0  0  0  0
 10 12  1  0  0  0  0
M  END
> <CAS>
96-48-0

> <NAME>
GAMMA-BUTYROLACTONE

> <preferred_name>
4-Butyrolactone

> <iupac>
dihydrofuran-2(3H)-one

> <SMILES>
O=C1CCCO1

> <Canonical_QSARr>
O=C1CCCO1

> <InChI_Code_QSARr>
InChI=1S/C4H6O2/c5-4-2-1-3-6-4/h1-3H2

> <InChI Key_QSARr>
YEJRWHAVMIAJKC-UHFFFAOYSA-N

> <Salt_Solvent>
?

> <WS Temperature>


> <WS Reference>
WEAST,RC (1972)

> <dsstox_substance_id>
DTXSID6020224

> <LogMolar>
1.065

$$$$
96-80-0
  -INDIGO-01081615412D

 29 28  0  0  0  0  0  0  0  0999 V2000
   -4.8000    0.0000    0.0000 O   0  0  0  0  0  0  0  0  0  0  0  0
   -3.2000    0.0000    0.0000 C   0  0  0  0  0  0  0  0  0  0  0  0
   -1.5999    0.0000    0.0000 C   0  0  0  0  0  0  0  0  0  0  0  0
   -0.0000    0.0000    0.0000 N   0  0  0  0  0  0  0  0  0  0  0  0
    0.8000    1.3856    0.0000 C   0  0  0  0  0  0  0  0  0  0  0  0
    2.0257    2.4141    0.0000 C   0  0  0  0  0  0  0  0  0  0  0  0
    3.2514    3.4426    0.0000 H   0  0  0  0  0  0  0  0  0  0  0  0
    1.7478    3.9898    0.0000 H   0  0  0  0  0  0  0  0  0  0  0  0
    3.5292    1.8669    0.0000 H   0  0  0  0  0  0  0  0  0  0  0  0
   -0.4256    2.4141    0.0000 C   0  0  0  0  0  0  0  0  0  0  0  0
   -1.6513    3.4426    0.0000 H   0  0  0  0  0  0  0  0  0  0  0  0
   -0.1478    3.9898    0.0000 H   0  0  0  0  0  0  0  0  0  0  0  0
    1.0779    2.9614    0.0000 H   0  0  0  0  0  0  0  0  0  0  0  0
    2.1856    0.5857    0.0000 H   0  0  0  0  0  0  0  0  0  0  0  0
    0.8000   -1.3856    0.0000 C   0  0  0  0  0  0  0  0  0  0  0  0
    1.8284   -2.6113    0.0000 C   0  0  0  0  0  0  0  0  0  0  0  0
    2.8569   -3.8369    0.0000 H   0  0  0  0  0  0  0  0  0  0  0  0
    3.4041   -2.3335    0.0000 H   0  0  0  0  0  0  0  0  0  0  0  0
    1.2813   -4.1148    0.0000 H   0  0  0  0  0  0  0  0  0  0  0  0
   -0.5857   -2.1856    0.0000 C   0  0  0  0  0  0  0  0  0  0  0  0
   -1.9713   -2.9856    0.0000 H   0  0  0  0  0  0  0  0  0  0  0  0
   -0.5857   -3.7856    0.0000 H   0  0  0  0  0  0  0  0  0  0  0  0
    0.8000   -2.9856    0.0000 H   0  0  0  0  0  0  0  0  0  0  0  0
    2.1856   -0.5857    0.0000 H   0  0  0  0  0  0  0  0  0  0  0  0
   -1.5999    1.6000    0.0000 H   0  0  0  0  0  0  0  0  0  0  0  0
   -1.5999   -1.6000    0.0000 H   0  0  0  0  0  0  0  0  0  0  0  0
   -3.2000   -1.6000    0.0000 H   0  0  0  0  0  0  0  0  0  0  0  0
   -3.2000    1.6000    0.0000 H   0  0  0  0  0  0  0  0  0  0  0  0
   -5.6000   -1.3856    0.0000 H   0  0  0  0  0  0  0  0  0  0  0  0
  1  2  1  0  0  0  0
  2  3  1  0  0  0  0
  3  4  1  0  0  0  0
  4  5  1  0  0  0  0
  5  6  1  0  0  0  0
  6  7  1  0  0  0  0
  6  8  1  0  0  0  0
  6  9  1  0  0  0  0
  5 10  1  0  0  0  0
 10 11  1  0  0  0  0
 10 12  1  0  0  0  0
 10 13  1  0  0  0  0
  5 14  1  0  0  0  0
  4 15  1  0  0  0  0
 15 16  1  0  0  0  0
 16 17  1  0  0  0  0
 16 18  1  0  0  0  0
 16 19  1  0  0  0  0
 15 20  1  0  0  0  0
 20 21  1  0  0  0  0
 20 22  1  0  0  0  0
 20 23  1  0  0  0  0
 15 24  1  0  0  0  0
  3 25  1  0  0  0  0
  3 26  1  0  0  0  0
  2 27  1  0  0  0  0
  2 28  1  0  0  0  0
  1 29  1  0  0  0  0
M  END
> <CAS>
96-80-0

> <NAME>
2-(BIS(1-METHYLETHYL)AMINO)ETHANOL

> <preferred_name>
2-(Diisopropylamino)ethanol

> <iupac>
2-[di(propan-2-yl)amino]ethanol

> <SMILES>
CC(C)N(CCO)C(C)C

> <Canonical_QSARr>
CC(C)N(CCO)C(C)C

> <InChI_Code_QSARr>
InChI=1S/C8H19NO/c1-7(2)9(5-6-10)8(3)4/h7-8,10H,5-6H2,1-4H3

> <InChI Key_QSARr>
ZYWUVGFIXPNBDL-UHFFFAOYSA-N

> <Salt_Solvent>
?

> <WS Temperature>
25

> <WS Reference>
BOLLMEIER,AF (1991)

> <dsstox_substance_id>
DTXSID6021822

> <LogMolar>
-1.0829

$$$$
96-91-3
  -INDIGO-01081615412D

 19 19  0  0  0  0  0  0  0  0999 V2000
    1.3857   -0.8000    0.0000 N   0  0  0  0  0  0  0  0  0  0  0  0
    0.0000    0.0000    0.0000 C   0  0  0  0  0  0  0  0  0  0  0  0
    0.0000    1.6000    0.0000 C   0  0  0  0  0  0  0  0  0  0  0  0
    1.3856    2.4000    0.0000 O   0  0  0  0  0  0  0  0  0  0  0  0
    2.7713    1.6000    0.0000 H   0  0  0  0  0  0  0  0  0  0  0  0
   -1.3856    2.4000    0.0000 C   0  0  0  0  0  0  0  0  0  0  0  0
   -1.3856    4.0000    0.0000 N   0  0  0  0  0  0  0  0  0  0  0  0
   -2.7713    4.8000    0.0000 H   0  0  0  0  0  0  0  0  0  0  0  0
    0.0000    4.8000    0.0000 H   0  0  0  0  0  0  0  0  0  0  0  0
   -2.7713    1.6000    0.0000 C   0  0  0  0  0  0  0  0  0  0  0  0
   -4.1569    2.4000    0.0000 H   0  0  0  0  0  0  0  0  0  0  0  0
   -2.7713    0.0000    0.0000 C   0  0  0  0  0  0  0  0  0  0  0  0
   -4.1570   -0.8000    0.0000 N   0  0  0  0  0  0  0  0  0  0  0  0
   -4.1570   -2.4000    0.0000 O   0  0  0  0  0  0  0  0  0  0  0  0
   -5.5426    0.0000    0.0000 O   0  0  0  0  0  0  0  0  0  0  0  0
   -1.3856   -0.8000    0.0000 C   0  0  0  0  0  0  0  0  0  0  0  0
   -1.3856   -2.4000    0.0000 H   0  0  0  0  0  0  0  0  0  0  0  0
    1.3857   -2.4000    0.0000 O   0  0  0  0  0  0  0  0  0  0  0  0
    2.7713    0.0000    0.0000 O   0  0  0  0  0  0  0  0  0  0  0  0
  1  2  1  0  0  0  0
  2  3  4  0  0  0  0
  3  4  1  0  0  0  0
  4  5  1  0  0  0  0
  3  6  4  0  0  0  0
  6  7  1  0  0  0  0
  7  8  1  0  0  0  0
  7  9  1  0  0  0  0
  6 10  4  0  0  0  0
 10 11  1  0  0  0  0
 10 12  4  0  0  0  0
 12 13  1  0  0  0  0
 13 14  1  0  0  0  0
 13 15  2  0  0  0  0
 12 16  4  0  0  0  0
 16  2  4  0  0  0  0
 16 17  1  0  0  0  0
  1 18  1  0  0  0  0
  1 19  2  0  0  0  0
M  CHG  4   1   1  13   1  14  -1  18  -1
M  END
> <CAS>
96-91-3

> <NAME>
2-AMINO-4,6-DINITROPHENOL

> <preferred_name>
2-Amino-4,6-dinitrophenol

> <iupac>
2-amino-4,6-dinitrophenol

> <SMILES>
Nc1cc(cc(c1O)[N+]([O-])=O)[N+]([O-])=O

> <Canonical_QSARr>
Nc1cc(cc(c1O)[N+]([O-])=O)[N+]([O-])=O

> <InChI_Code_QSARr>
InChI=1S/C6H5N3O5/c7-4-1-3(8(11)12)2-5(6(4)10)9(13)14/h1-2,10H,7H2

> <InChI Key_QSARr>
QXYMVUZOGFVPGH-UHFFFAOYSA-N

> <Salt_Solvent>
?

> <WS Temperature>
22

> <WS Reference>
YALKOWSKY,SH & DANNENFELSER,RM (1992)

> <dsstox_substance_id>
DTXSID5024479

> <LogMolar>
-2.3196

$$$$
97-18-7
  -INDIGO-01081615412D

 25 26  0  0  0  0  0  0  0  0999 V2000
   -0.0000    2.7713    0.0000 O   0  0  0  0  0  0  0  0  0  0  0  0
   -0.8000    1.3856    0.0000 C   0  0  0  0  0  0  0  0  0  0  0  0
   -0.0000   -0.0000    0.0000 C   0  0  0  0  0  0  0  0  0  0  0  0
    1.6000   -0.0000    0.0000 S   0  0  0  0  0  0  0  0  0  0  0  0
    2.9857   -0.8000    0.0000 C   0  0  0  0  0  0  0  0  0  0  0  0
    2.9857   -2.4000    0.0000 C   0  0  0  0  0  0  0  0  0  0  0  0
    1.6000   -3.2000    0.0000 H   0  0  0  0  0  0  0  0  0  0  0  0
    4.3714   -3.2000    0.0000 C   0  0  0  0  0  0  0  0  0  0  0  0
    4.3714   -4.8000    0.0000 Cl  0  0  0  0  0  0  0  0  0  0  0  0
    5.7569   -2.4000    0.0000 C   0  0  0  0  0  0  0  0  0  0  0  0
    7.1426   -3.2000    0.0000 H   0  0  0  0  0  0  0  0  0  0  0  0
    5.7569   -0.8000    0.0000 C   0  0  0  0  0  0  0  0  0  0  0  0
    7.1426   -0.0000    0.0000 Cl  0  0  0  0  0  0  0  0  0  0  0  0
    4.3714   -0.0000    0.0000 C   0  0  0  0  0  0  0  0  0  0  0  0
    4.3714    1.6000    0.0000 O   0  0  0  0  0  0  0  0  0  0  0  0
    5.7569    2.4000    0.0000 H   0  0  0  0  0  0  0  0  0  0  0  0
   -0.8000   -1.3856    0.0000 C   0  0  0  0  0  0  0  0  0  0  0  0
   -0.0000   -2.7713    0.0000 H   0  0  0  0  0  0  0  0  0  0  0  0
   -2.4000   -1.3856    0.0000 C   0  0  0  0  0  0  0  0  0  0  0  0
   -3.2000   -2.7713    0.0000 Cl  0  0  0  0  0  0  0  0  0  0  0  0
   -3.2000   -0.0000    0.0000 C   0  0  0  0  0  0  0  0  0  0  0  0
   -4.8000   -0.0000    0.0000 H   0  0  0  0  0  0  0  0  0  0  0  0
   -2.4000    1.3856    0.0000 C   0  0  0  0  0  0  0  0  0  0  0  0
   -3.2000    2.7713    0.0000 Cl  0  0  0  0  0  0  0  0  0  0  0  0
   -0.8000    4.1569    0.0000 H   0  0  0  0  0  0  0  0  0  0  0  0
  1  2  1  0  0  0  0
  2  3  4  0  0  0  0
  3  4  1  0  0  0  0
  4  5  1  0  0  0  0
  5  6  4  0  0  0  0
  6  7  1  0  0  0  0
  6  8  4  0  0  0  0
  8  9  1  0  0  0  0
  8 10  4  0  0  0  0
 10 11  1  0  0  0  0
 10 12  4  0  0  0  0
 12 13  1  0  0  0  0
 12 14  4  0  0  0  0
 14  5  4  0  0  0  0
 14 15  1  0  0  0  0
 15 16  1  0  0  0  0
  3 17  4  0  0  0  0
 17 18  1  0  0  0  0
 17 19  4  0  0  0  0
 19 20  1  0  0  0  0
 19 21  4  0  0  0  0
 21 22  1  0  0  0  0
 21 23  4  0  0  0  0
 23  2  4  0  0  0  0
 23 24  1  0  0  0  0
  1 25  1  0  0  0  0
M  END
> <CAS>
97-18-7

> <NAME>
Phenol, 2,2'-thiobis 4,6-dichloro-

> <preferred_name>
Bithionol

> <iupac>
2,2'-sulfanediylbis(4,6-dichlorophenol)

> <SMILES>
Oc1c(cc(Cl)cc1Cl)Sc1cc(Cl)cc(Cl)c1O

> <Canonical_QSARr>
Oc1c(cc(Cl)cc1Cl)Sc1cc(Cl)cc(Cl)c1O

> <InChI_Code_QSARr>
InChI=1S/C12H6Cl4O2S/c13-5-1-7(15)11(17)9(3-5)19-10-4-6(14)2-8(16)12(10)18/h1-4,17-18H

> <InChI Key_QSARr>
JFIOVJDNOJYLKP-UHFFFAOYSA-N

> <Salt_Solvent>
?

> <WS Temperature>
25

> <WS Reference>
MERCK INDEX (1996)

> <dsstox_substance_id>
DTXSID9021342

> <LogMolar>
-4.9495

$$$$
97-59-6
  -INDIGO-01081615412D

 17 17  0  0  0  0  0  0  0  0999 V2000
   -1.5529    2.3912    0.0000 O   0  0  0  0  0  0  0  0  0  0  0  0
   -1.3857    0.8000    0.0000 C   0  0  0  0  0  0  0  0  0  0  0  0
   -2.5747   -0.2706    0.0000 N   0  0  0  0  0  0  0  0  0  0  0  0
   -4.1397    0.0621    0.0000 H   0  0  0  0  0  0  0  0  0  0  0  0
   -1.9239   -1.7323    0.0000 C   0  0  0  0  0  0  0  0  0  0  0  0
   -2.7240   -3.1179    0.0000 O   0  0  0  0  0  0  0  0  0  0  0  0
   -0.3326   -1.5650    0.0000 N   0  0  0  0  0  0  0  0  0  0  0  0
    0.7380   -2.7541    0.0000 H   0  0  0  0  0  0  0  0  0  0  0  0
    0.0000    0.0000    0.0000 C   0  0  0  0  0  0  0  0  0  0  0  0
    1.5217   -0.4944    0.0000 N   0  0  0  0  0  0  0  0  0  0  0  0
    2.7107    0.5762    0.0000 C   0  0  0  0  0  0  0  0  0  0  0  0
    4.2324    0.0817    0.0000 N   0  0  0  0  0  0  0  0  0  0  0  0
    5.4214    1.1524    0.0000 H   0  0  0  0  0  0  0  0  0  0  0  0
    4.5650   -1.4833    0.0000 H   0  0  0  0  0  0  0  0  0  0  0  0
    2.3781    2.1412    0.0000 O   0  0  0  0  0  0  0  0  0  0  0  0
    1.8543   -2.0595    0.0000 H   0  0  0  0  0  0  0  0  0  0  0  0
    0.6507    1.4617    0.0000 H   0  0  0  0  0  0  0  0  0  0  0  0
  1  2  2  0  0  0  0
  2  3  1  0  0  0  0
  3  4  1  0  0  0  0
  3  5  1  0  0  0  0
  5  6  2  0  0  0  0
  5  7  1  0  0  0  0
  7  8  1  0  0  0  0
  7  9  1  0  0  0  0
  9  2  1  0  0  0  0
  9 10  1  0  0  0  0
 10 11  1  0  0  0  0
 11 12  1  0  0  0  0
 12 13  1  0  0  0  0
 12 14  1  0  0  0  0
 11 15  2  0  0  0  0
 10 16  1  0  0  0  0
  9 17  1  0  0  0  0
M  END
> <CAS>
97-59-6

> <NAME>
ALLANTOIN

> <preferred_name>
Allantoin

> <iupac>
1-(2,5-dioxoimidazolidin-4-yl)urea

> <SMILES>
NC(=O)NC1NC(=O)NC1=O

> <Canonical_QSARr>
NC(=O)NC1NC(=O)NC1=O

> <InChI_Code_QSARr>
InChI=1S/C4H6N4O3/c5-3(10)6-1-2(9)8-4(11)7-1/h1H,(H3,5,6,10)(H2,7,8,9,11)

> <InChI Key_QSARr>
POJWUDADGALRAB-UHFFFAOYSA-N

> <Salt_Solvent>
?

> <WS Temperature>


> <WS Reference>
YALKOWSKY,SH & HE,Y (2003)

> <dsstox_substance_id>
DTXSID3020043

> <LogMolar>
-1.4778

$$$$
97-65-4
  -INDIGO-01081615412D

 15 14  0  0  0  0  0  0  0  0999 V2000
    2.4000    1.3856    0.0000 C   0  0  0  0  0  0  0  0  0  0  0  0
    1.6000    2.7713    0.0000 O   0  0  0  0  0  0  0  0  0  0  0  0
    4.0000    1.3856    0.0000 O   0  0  0  0  0  0  0  0  0  0  0  0
    4.8000    2.7713    0.0000 H   0  0  0  0  0  0  0  0  0  0  0  0
    1.6000    0.0000    0.0000 C   0  0  0  0  0  0  0  0  0  0  0  0
    2.4000   -1.3856    0.0000 C   0  0  0  0  0  0  0  0  0  0  0  0
    4.0000   -1.3856    0.0000 H   0  0  0  0  0  0  0  0  0  0  0  0
    1.6000   -2.7713    0.0000 H   0  0  0  0  0  0  0  0  0  0  0  0
    0.0000    0.0000    0.0000 C   0  0  0  0  0  0  0  0  0  0  0  0
   -1.6000   -0.0000    0.0000 C   0  0  0  0  0  0  0  0  0  0  0  0
   -2.4001    1.3856    0.0000 O   0  0  0  0  0  0  0  0  0  0  0  0
   -2.4001   -1.3856    0.0000 O   0  0  0  0  0  0  0  0  0  0  0  0
   -4.0000   -1.3856    0.0000 H   0  0  0  0  0  0  0  0  0  0  0  0
    0.0000    1.6000    0.0000 H   0  0  0  0  0  0  0  0  0  0  0  0
    0.0000   -1.6000    0.0000 H   0  0  0  0  0  0  0  0  0  0  0  0
  1  2  2  0  0  0  0
  1  3  1  0  0  0  0
  3  4  1  0  0  0  0
  1  5  1  0  0  0  0
  5  6  2  0  0  0  0
  6  7  1  0  0  0  0
  6  8  1  0  0  0  0
  5  9  1  0  0  0  0
  9 10  1  0  0  0  0
 10 11  2  0  0  0  0
 10 12  1  0  0  0  0
 12 13  1  0  0  0  0
  9 14  1  0  0  0  0
  9 15  1  0  0  0  0
M  END
> <CAS>
97-65-4

> <NAME>
Butanedioic acid, methylene-

> <preferred_name>
Methylenebutanedioic acid

> <iupac>
2-methylidenebutanedioic acid

> <SMILES>
C=C(CC(O)=O)C(O)=O

> <Canonical_QSARr>
C=C(CC(O)=O)C(O)=O

> <InChI_Code_QSARr>
InChI=1S/C5H6O4/c1-3(5(8)9)2-4(6)7/h1-2H2,(H,6,7)(H,8,9)

> <InChI Key_QSARr>
LVHBHZANLOWSRM-UHFFFAOYSA-N

> <Salt_Solvent>
?

> <WS Temperature>
20

> <WS Reference>
YALKOWSKY,SH & DANNENFELSER,RM (1992)

> <dsstox_substance_id>
DTXSID2026608

> <LogMolar>
-0.2289

$$$$
97-95-0
  -INDIGO-01081615412D

 21 20  0  0  0  0  0  0  0  0999 V2000
    0.0001    0.6400    0.0000 C   0  0  0  0  0  0  0  0  0  0  0  0
    0.0001    2.2400    0.0000 O   0  0  0  0  0  0  0  0  0  0  0  0
   -1.3857    3.0400    0.0000 H   0  0  0  0  0  0  0  0  0  0  0  0
    0.0001   -0.0000    0.0000 C   0  0  0  0  0  0  0  0  0  0  0  0
   -1.5035   -0.5472    0.0000 C   0  0  0  0  0  0  0  0  0  0  0  0
   -3.0069   -1.0945    0.0000 C   0  0  0  0  0  0  0  0  0  0  0  0
   -4.5105   -1.6417    0.0000 H   0  0  0  0  0  0  0  0  0  0  0  0
   -3.2849   -2.6702    0.0000 H   0  0  0  0  0  0  0  0  0  0  0  0
   -4.2327   -0.0660    0.0000 H   0  0  0  0  0  0  0  0  0  0  0  0
   -0.9563   -2.0507    0.0000 H   0  0  0  0  0  0  0  0  0  0  0  0
   -2.5319    0.6785    0.0000 H   0  0  0  0  0  0  0  0  0  0  0  0
    1.5035   -0.5472    0.0000 C   0  0  0  0  0  0  0  0  0  0  0  0
    3.0071   -1.0945    0.0000 C   0  0  0  0  0  0  0  0  0  0  0  0
    4.5105   -1.6417    0.0000 H   0  0  0  0  0  0  0  0  0  0  0  0
    3.2849   -2.6702    0.0000 H   0  0  0  0  0  0  0  0  0  0  0  0
    4.2327   -0.0660    0.0000 H   0  0  0  0  0  0  0  0  0  0  0  0
    0.9563   -2.0507    0.0000 H   0  0  0  0  0  0  0  0  0  0  0  0
    2.5319    0.6785    0.0000 H   0  0  0  0  0  0  0  0  0  0  0  0
    0.0001   -1.6000    0.0000 H   0  0  0  0  0  0  0  0  0  0  0  0
    1.5756    0.9178    0.0000 H   0  0  0  0  0  0  0  0  0  0  0  0
   -1.5035    1.1872    0.0000 H   0  0  0  0  0  0  0  0  0  0  0  0
  1  2  1  0  0  0  0
  2  3  1  0  0  0  0
  1  4  1  0  0  0  0
  4  5  1  0  0  0  0
  5  6  1  0  0  0  0
  6  7  1  0  0  0  0
  6  8  1  0  0  0  0
  6  9  1  0  0  0  0
  5 10  1  0  0  0  0
  5 11  1  0  0  0  0
  4 12  1  0  0  0  0
 12 13  1  0  0  0  0
 13 14  1  0  0  0  0
 13 15  1  0  0  0  0
 13 16  1  0  0  0  0
 12 17  1  0  0  0  0
 12 18  1  0  0  0  0
  4 19  1  0  0  0  0
  1 20  1  0  0  0  0
  1 21  1  0  0  0  0
M  END
> <CAS>
97-95-0

> <NAME>
2-ETHYL-1-BUTANOL

> <preferred_name>
2-Ethyl-1-butanol

> <iupac>
2-ethylbutan-1-ol

> <SMILES>
CCC(CO)CC

> <Canonical_QSARr>
CCC(CO)CC

> <InChI_Code_QSARr>
InChI=1S/C6H14O/c1-3-6(4-2)5-7/h6-7H,3-5H2,1-2H3

> <InChI Key_QSARr>
TZYRSLHNPKPEFV-UHFFFAOYSA-N

> <Salt_Solvent>
?

> <WS Temperature>
25

> <WS Reference>
YALKOWSKY,SH & DANNENFELSER,RM (1992)

> <dsstox_substance_id>
DTXSID2041416

> <LogMolar>
-1.4073

$$$$
98-06-6
  -INDIGO-01081615412D

 24 24  0  0  0  0  0  0  0  0999 V2000
   -1.5999   -0.0000    0.0000 C   0  0  0  0  0  0  0  0  0  0  0  0
    0.0000    0.0000    0.0000 C   0  0  0  0  0  0  0  0  0  0  0  0
    1.6001    0.0000    0.0000 C   0  0  0  0  0  0  0  0  0  0  0  0
    3.2000    0.0000    0.0000 H   0  0  0  0  0  0  0  0  0  0  0  0
    2.6284    1.2256    0.0000 H   0  0  0  0  0  0  0  0  0  0  0  0
    2.6284   -1.2256    0.0000 H   0  0  0  0  0  0  0  0  0  0  0  0
    0.0000   -1.6000    0.0000 C   0  0  0  0  0  0  0  0  0  0  0  0
   -0.2779   -3.1757    0.0000 H   0  0  0  0  0  0  0  0  0  0  0  0
    1.2257   -2.6285    0.0000 H   0  0  0  0  0  0  0  0  0  0  0  0
    1.5758   -1.3222    0.0000 H   0  0  0  0  0  0  0  0  0  0  0  0
    0.0000    1.6000    0.0000 C   0  0  0  0  0  0  0  0  0  0  0  0
   -0.2779    3.1757    0.0000 H   0  0  0  0  0  0  0  0  0  0  0  0
    1.2257    2.6285    0.0000 H   0  0  0  0  0  0  0  0  0  0  0  0
    1.5035    1.0527    0.0000 H   0  0  0  0  0  0  0  0  0  0  0  0
   -2.4000    1.3857    0.0000 C   0  0  0  0  0  0  0  0  0  0  0  0
   -1.6001    2.7713    0.0000 H   0  0  0  0  0  0  0  0  0  0  0  0
   -4.0000    1.3857    0.0000 C   0  0  0  0  0  0  0  0  0  0  0  0
   -4.8001    2.7713    0.0000 H   0  0  0  0  0  0  0  0  0  0  0  0
   -4.8001   -0.0000    0.0000 C   0  0  0  0  0  0  0  0  0  0  0  0
   -6.4000   -0.0000    0.0000 H   0  0  0  0  0  0  0  0  0  0  0  0
   -4.0000   -1.3857    0.0000 C   0  0  0  0  0  0  0  0  0  0  0  0
   -4.8001   -2.7713    0.0000 H   0  0  0  0  0  0  0  0  0  0  0  0
   -2.4000   -1.3857    0.0000 C   0  0  0  0  0  0  0  0  0  0  0  0
   -1.5999   -2.7713    0.0000 H   0  0  0  0  0  0  0  0  0  0  0  0
  1  2  1  0  0  0  0
  2  3  1  0  0  0  0
  3  4  1  0  0  0  0
  3  5  1  0  0  0  0
  3  6  1  0  0  0  0
  2  7  1  0  0  0  0
  7  8  1  0  0  0  0
  7  9  1  0  0  0  0
  7 10  1  0  0  0  0
  2 11  1  0  0  0  0
 11 12  1  0  0  0  0
 11 13  1  0  0  0  0
 11 14  1  0  0  0  0
  1 15  4  0  0  0  0
 15 16  1  0  0  0  0
 15 17  4  0  0  0  0
 17 18  1  0  0  0  0
 17 19  4  0  0  0  0
 19 20  1  0  0  0  0
 19 21  4  0  0  0  0
 21 22  1  0  0  0  0
 21 23  4  0  0  0  0
 23  1  4  0  0  0  0
 23 24  1  0  0  0  0
M  END
> <CAS>
98-06-6

> <NAME>
T-BUTYLBENZENE

> <preferred_name>
tert-Butylbenzene

> <iupac>
tert-butylbenzene

> <SMILES>
CC(C)(C)c1ccccc1

> <Canonical_QSARr>
CC(C)(C)c1ccccc1

> <InChI_Code_QSARr>
InChI=1S/C10H14/c1-10(2,3)9-7-5-4-6-8-9/h4-8H,1-3H3

> <InChI Key_QSARr>
YTZKOQUCBOVLHL-UHFFFAOYSA-N

> <Salt_Solvent>
?

> <WS Temperature>
25

> <WS Reference>
YALKOWSKY,SH & DANNENFELSER,RM (1992)

> <dsstox_substance_id>
DTXSID3047138

> <LogMolar>
-3.658

$$$$
98-16-8
  -INDIGO-01081615412D

 17 17  0  0  0  0  0  0  0  0999 V2000
    1.3857    2.4000    0.0000 F   0  0  0  0  0  0  0  0  0  0  0  0
    1.3857    0.8000    0.0000 C   0  0  0  0  0  0  0  0  0  0  0  0
    0.0000   -0.0000    0.0000 C   0  0  0  0  0  0  0  0  0  0  0  0
   -1.3857    0.8000    0.0000 C   0  0  0  0  0  0  0  0  0  0  0  0
   -1.3857    2.4000    0.0000 H   0  0  0  0  0  0  0  0  0  0  0  0
   -2.7713   -0.0000    0.0000 C   0  0  0  0  0  0  0  0  0  0  0  0
   -4.1569    0.8000    0.0000 N   0  0  0  0  0  0  0  0  0  0  0  0
   -5.5426   -0.0000    0.0000 H   0  0  0  0  0  0  0  0  0  0  0  0
   -4.1569    2.4000    0.0000 H   0  0  0  0  0  0  0  0  0  0  0  0
   -2.7713   -1.6000    0.0000 C   0  0  0  0  0  0  0  0  0  0  0  0
   -4.1569   -2.4000    0.0000 H   0  0  0  0  0  0  0  0  0  0  0  0
   -1.3856   -2.4000    0.0000 C   0  0  0  0  0  0  0  0  0  0  0  0
   -1.3856   -4.0000    0.0000 H   0  0  0  0  0  0  0  0  0  0  0  0
    0.0000   -1.6000    0.0000 C   0  0  0  0  0  0  0  0  0  0  0  0
    1.3857   -2.4000    0.0000 H   0  0  0  0  0  0  0  0  0  0  0  0
    2.7713    1.6000    0.0000 F   0  0  0  0  0  0  0  0  0  0  0  0
    2.7713   -0.0000    0.0000 F   0  0  0  0  0  0  0  0  0  0  0  0
  1  2  1  0  0  0  0
  2  3  1  0  0  0  0
  3  4  4  0  0  0  0
  4  5  1  0  0  0  0
  4  6  4  0  0  0  0
  6  7  1  0  0  0  0
  7  8  1  0  0  0  0
  7  9  1  0  0  0  0
  6 10  4  0  0  0  0
 10 11  1  0  0  0  0
 10 12  4  0  0  0  0
 12 13  1  0  0  0  0
 12 14  4  0  0  0  0
 14  3  4  0  0  0  0
 14 15  1  0  0  0  0
  2 16  1  0  0  0  0
  2 17  1  0  0  0  0
M  END
> <CAS>
98-16-8

> <NAME>
3-TRIFLUOROMETHYLANILINE

> <preferred_name>
3-(Trifluoromethyl)aniline

> <iupac>
3-(trifluoromethyl)aniline

> <SMILES>
Nc1cc(ccc1)C(F)(F)F

> <Canonical_QSARr>
Nc1cc(ccc1)C(F)(F)F

> <InChI_Code_QSARr>
InChI=1S/C7H6F3N/c8-7(9,10)5-2-1-3-6(11)4-5/h1-4H,11H2

> <InChI Key_QSARr>
VIUDTWATMPPKEL-UHFFFAOYSA-N

> <Salt_Solvent>
?

> <WS Temperature>
25

> <WS Reference>
KUHNE,R ET AL. (1995)

> <dsstox_substance_id>
DTXSID9024512

> <LogMolar>
-1.4704

$$$$
98-43-1
  -INDIGO-01081615412D

 21 21  0  0  0  0  0  0  0  0999 V2000
    5.6000   -1.3856    0.0000 O   0  0  0  0  0  0  0  0  0  0  0  0
    4.8000    0.0000    0.0000 C   0  0  0  0  0  0  0  0  0  0  0  0
    3.2001    0.0000    0.0000 C   0  0  0  0  0  0  0  0  0  0  0  0
    2.4001    1.3856    0.0000 C   0  0  0  0  0  0  0  0  0  0  0  0
    3.2001    2.7713    0.0000 H   0  0  0  0  0  0  0  0  0  0  0  0
    0.7999    1.3856    0.0000 C   0  0  0  0  0  0  0  0  0  0  0  0
   -0.0001    2.7713    0.0000 H   0  0  0  0  0  0  0  0  0  0  0  0
   -0.0001    0.0000    0.0000 C   0  0  0  0  0  0  0  0  0  0  0  0
   -1.6000    0.0000    0.0000 S   0  0  0  0  0  0  0  0  0  0  0  0
   -3.2000    0.0000    0.0000 O   0  0  0  0  0  0  0  0  0  0  0  0
   -4.0000    1.3856    0.0000 H   0  0  0  0  0  0  0  0  0  0  0  0
   -1.6000    1.6000    0.0000 O   0  0  0  0  0  0  0  0  0  0  0  0
   -1.6000   -1.6000    0.0000 O   0  0  0  0  0  0  0  0  0  0  0  0
    0.7999   -1.3856    0.0000 C   0  0  0  0  0  0  0  0  0  0  0  0
   -0.0001   -2.7713    0.0000 H   0  0  0  0  0  0  0  0  0  0  0  0
    2.4001   -1.3856    0.0000 C   0  0  0  0  0  0  0  0  0  0  0  0
    3.2001   -2.7713    0.0000 N   0  0  0  0  0  0  0  0  0  0  0  0
    2.4001   -4.1569    0.0000 H   0  0  0  0  0  0  0  0  0  0  0  0
    4.8000   -2.7713    0.0000 H   0  0  0  0  0  0  0  0  0  0  0  0
    5.6000    1.3856    0.0000 O   0  0  0  0  0  0  0  0  0  0  0  0
    7.2000    1.3856    0.0000 H   0  0  0  0  0  0  0  0  0  0  0  0
  1  2  2  0  0  0  0
  2  3  1  0  0  0  0
  3  4  4  0  0  0  0
  4  5  1  0  0  0  0
  4  6  4  0  0  0  0
  6  7  1  0  0  0  0
  6  8  4  0  0  0  0
  8  9  1  0  0  0  0
  9 10  1  0  0  0  0
 10 11  1  0  0  0  0
  9 12  2  0  0  0  0
  9 13  2  0  0  0  0
  8 14  4  0  0  0  0
 14 15  1  0  0  0  0
 14 16  4  0  0  0  0
 16  3  4  0  0  0  0
 16 17  1  0  0  0  0
 17 18  1  0  0  0  0
 17 19  1  0  0  0  0
  2 20  1  0  0  0  0
 20 21  1  0  0  0  0
M  END
> <CAS>
98-43-1

> <NAME>
Benzoic acid, 2-amino-4-sulfo-

> <preferred_name>
Benzoic acid, 2-amino-4-sulfo-

> <iupac>
2-amino-4-sulfobenzoic acid

> <SMILES>
Nc1cc(ccc1C(O)=O)S(O)(=O)=O

> <Canonical_QSARr>
Nc1cc(ccc1C(O)=O)S(O)(=O)=O

> <InChI_Code_QSARr>
InChI=1S/C7H7NO5S/c8-6-3-4(14(11,12)13)1-2-5(6)7(9)10/h1-3H,8H2,(H,9,10)(H,11,12,13)

> <InChI Key_QSARr>
GRGSHONWRKRWGP-UHFFFAOYSA-N

> <Salt_Solvent>
?

> <WS Temperature>
25

> <WS Reference>
BEILSTEIN

> <dsstox_substance_id>
DTXSID4059172

> <LogMolar>
-1.3157

$$$$
98-61-3
  -INDIGO-01081615412D

 15 15  0  0  0  0  0  0  0  0999 V2000
    1.6000    0.0000    0.0000 S   0  0  0  0  0  0  0  0  0  0  0  0
    3.2000    0.0000    0.0000 Cl  0  0  0  0  0  0  0  0  0  0  0  0
    2.4001    1.3856    0.0000 O   0  0  0  0  0  0  0  0  0  0  0  0
    2.4001   -1.3856    0.0000 O   0  0  0  0  0  0  0  0  0  0  0  0
    0.0000   -0.0000    0.0000 C   0  0  0  0  0  0  0  0  0  0  0  0
   -0.8001    1.3856    0.0000 C   0  0  0  0  0  0  0  0  0  0  0  0
    0.0000    2.7713    0.0000 H   0  0  0  0  0  0  0  0  0  0  0  0
   -2.4001    1.3856    0.0000 C   0  0  0  0  0  0  0  0  0  0  0  0
   -3.2000    2.7713    0.0000 H   0  0  0  0  0  0  0  0  0  0  0  0
   -3.2000   -0.0000    0.0000 C   0  0  0  0  0  0  0  0  0  0  0  0
   -4.8000   -0.0000    0.0000 I   0  0  0  0  0  0  0  0  0  0  0  0
   -2.4001   -1.3856    0.0000 C   0  0  0  0  0  0  0  0  0  0  0  0
   -3.2000   -2.7713    0.0000 H   0  0  0  0  0  0  0  0  0  0  0  0
   -0.8001   -1.3856    0.0000 C   0  0  0  0  0  0  0  0  0  0  0  0
    0.0000   -2.7713    0.0000 H   0  0  0  0  0  0  0  0  0  0  0  0
  1  2  1  0  0  0  0
  1  3  2  0  0  0  0
  1  4  2  0  0  0  0
  1  5  1  0  0  0  0
  5  6  4  0  0  0  0
  6  7  1  0  0  0  0
  6  8  4  0  0  0  0
  8  9  1  0  0  0  0
  8 10  4  0  0  0  0
 10 11  1  0  0  0  0
 10 12  4  0  0  0  0
 12 13  1  0  0  0  0
 12 14  4  0  0  0  0
 14  5  4  0  0  0  0
 14 15  1  0  0  0  0
M  END
> <CAS>
98-61-3

> <NAME>
Benzenesulfonyl chloride, 4-iodo-

> <preferred_name>
Benzenesulfonyl chloride, 4-iodo-

> <iupac>
4-Iodobenzenesulfonyl chloride

> <SMILES>
O=S(=O)(Cl)c1ccc(I)cc1

> <Canonical_QSARr>
O=S(=O)(Cl)c1ccc(I)cc1

> <InChI_Code_QSARr>
InChI=1S/C6H4ClIO2S/c7-11(9,10)6-3-1-5(8)2-4-6/h1-4H

> <InChI Key_QSARr>
POXFXTSTVWDWIR-UHFFFAOYSA-N

> <Salt_Solvent>
?

> <WS Temperature>
25

> <WS Reference>
YALKOWSKY,SH & DANNENFELSER,RM (1992)

> <dsstox_substance_id>
DTXSID9059175

> <LogMolar>
-4.2686

$$$$
98-83-9
  -INDIGO-01081615412D

 19 19  0  0  0  0  0  0  0  0999 V2000
    1.6000    0.0000    0.0000 C   0  0  0  0  0  0  0  0  0  0  0  0
   -0.0000   -0.0000    0.0000 C   0  0  0  0  0  0  0  0  0  0  0  0
   -0.8000    1.3856    0.0000 C   0  0  0  0  0  0  0  0  0  0  0  0
   -0.0000    2.7713    0.0000 H   0  0  0  0  0  0  0  0  0  0  0  0
   -2.4000    1.3856    0.0000 C   0  0  0  0  0  0  0  0  0  0  0  0
   -3.2001    2.7713    0.0000 H   0  0  0  0  0  0  0  0  0  0  0  0
   -3.2001   -0.0000    0.0000 C   0  0  0  0  0  0  0  0  0  0  0  0
   -4.8000   -0.0000    0.0000 H   0  0  0  0  0  0  0  0  0  0  0  0
   -2.4000   -1.3856    0.0000 C   0  0  0  0  0  0  0  0  0  0  0  0
   -3.2001   -2.7713    0.0000 H   0  0  0  0  0  0  0  0  0  0  0  0
   -0.8000   -1.3856    0.0000 C   0  0  0  0  0  0  0  0  0  0  0  0
   -0.0000   -2.7713    0.0000 H   0  0  0  0  0  0  0  0  0  0  0  0
    2.4001    1.3856    0.0000 C   0  0  0  0  0  0  0  0  0  0  0  0
    4.0000    1.3856    0.0000 H   0  0  0  0  0  0  0  0  0  0  0  0
    1.6000    2.7713    0.0000 H   0  0  0  0  0  0  0  0  0  0  0  0
    2.4001   -1.3856    0.0000 C   0  0  0  0  0  0  0  0  0  0  0  0
    3.2000   -2.7713    0.0000 H   0  0  0  0  0  0  0  0  0  0  0  0
    4.0000   -1.3856    0.0000 H   0  0  0  0  0  0  0  0  0  0  0  0
    1.6000   -2.7713    0.0000 H   0  0  0  0  0  0  0  0  0  0  0  0
  1  2  1  0  0  0  0
  2  3  4  0  0  0  0
  3  4  1  0  0  0  0
  3  5  4  0  0  0  0
  5  6  1  0  0  0  0
  5  7  4  0  0  0  0
  7  8  1  0  0  0  0
  7  9  4  0  0  0  0
  9 10  1  0  0  0  0
  9 11  4  0  0  0  0
 11  2  4  0  0  0  0
 11 12  1  0  0  0  0
  1 13  2  0  0  0  0
 13 14  1  0  0  0  0
 13 15  1  0  0  0  0
  1 16  1  0  0  0  0
 16 17  1  0  0  0  0
 16 18  1  0  0  0  0
 16 19  1  0  0  0  0
M  END
> <CAS>
98-83-9

> <NAME>
ALPHA-METHYLSTYRENE

> <preferred_name>
alpha-Methylstyrene

> <iupac>
prop-1-en-2-ylbenzene

> <SMILES>
CC(=C)c1ccccc1

> <Canonical_QSARr>
CC(=C)c1ccccc1

> <InChI_Code_QSARr>
InChI=1S/C9H10/c1-8(2)9-6-4-3-5-7-9/h3-7H,1H2,2H3

> <InChI Key_QSARr>
XYLMUPLGERFSHI-UHFFFAOYSA-N

> <Salt_Solvent>
?

> <WS Temperature>
25

> <WS Reference>
YALKOWSKY,SH & DANNENFELSER,RM (1992)

> <dsstox_substance_id>
DTXSID9025661

> <LogMolar>
-3.0081

$$$$
98-87-3
  -INDIGO-01081615412D

 15 15  0  0  0  0  0  0  0  0999 V2000
    0.0000   -0.0000    0.0000 C   0  0  0  0  0  0  0  0  0  0  0  0
    1.6000    0.0000    0.0000 C   0  0  0  0  0  0  0  0  0  0  0  0
    3.2000    0.0000    0.0000 Cl  0  0  0  0  0  0  0  0  0  0  0  0
    2.4001    1.3856    0.0000 Cl  0  0  0  0  0  0  0  0  0  0  0  0
    2.4001   -1.3856    0.0000 H   0  0  0  0  0  0  0  0  0  0  0  0
   -0.8001    1.3856    0.0000 C   0  0  0  0  0  0  0  0  0  0  0  0
    0.0000    2.7713    0.0000 H   0  0  0  0  0  0  0  0  0  0  0  0
   -2.4001    1.3856    0.0000 C   0  0  0  0  0  0  0  0  0  0  0  0
   -3.2000    2.7713    0.0000 H   0  0  0  0  0  0  0  0  0  0  0  0
   -3.2000   -0.0000    0.0000 C   0  0  0  0  0  0  0  0  0  0  0  0
   -4.8000   -0.0000    0.0000 H   0  0  0  0  0  0  0  0  0  0  0  0
   -2.4001   -1.3856    0.0000 C   0  0  0  0  0  0  0  0  0  0  0  0
   -3.2000   -2.7713    0.0000 H   0  0  0  0  0  0  0  0  0  0  0  0
   -0.8001   -1.3856    0.0000 C   0  0  0  0  0  0  0  0  0  0  0  0
    0.0000   -2.7713    0.0000 H   0  0  0  0  0  0  0  0  0  0  0  0
  1  2  1  0  0  0  0
  2  3  1  0  0  0  0
  2  4  1  0  0  0  0
  2  5  1  0  0  0  0
  1  6  4  0  0  0  0
  6  7  1  0  0  0  0
  6  8  4  0  0  0  0
  8  9  1  0  0  0  0
  8 10  4  0  0  0  0
 10 11  1  0  0  0  0
 10 12  4  0  0  0  0
 12 13  1  0  0  0  0
 12 14  4  0  0  0  0
 14  1  4  0  0  0  0
 14 15  1  0  0  0  0
M  END
> <CAS>
98-87-3

> <NAME>
(DICHLOROMETHYL)BENZENE

> <preferred_name>
Benzal chloride

> <iupac>
(dichloromethyl)benzene

> <SMILES>
ClC(Cl)c1ccccc1

> <Canonical_QSARr>
ClC(Cl)c1ccccc1

> <InChI_Code_QSARr>
InChI=1S/C7H6Cl2/c8-7(9)6-4-2-1-3-5-6/h1-5,7H

> <InChI Key_QSARr>
CAHQGWAXKLQREW-UHFFFAOYSA-N

> <Salt_Solvent>
?

> <WS Temperature>
30

> <WS Reference>
OHNISHI,R & TANABE,K (1971)

> <dsstox_substance_id>
DTXSID6025014

> <LogMolar>
-2.809

$$$$
98-96-4
  -INDIGO-01081615412D

 14 14  0  0  0  0  0  0  0  0999 V2000
    2.4001   -1.3856    0.0000 N   0  0  0  0  0  0  0  0  0  0  0  0
    1.6000    0.0000    0.0000 C   0  0  0  0  0  0  0  0  0  0  0  0
   -0.0000    0.0000    0.0000 C   0  0  0  0  0  0  0  0  0  0  0  0
   -0.8000    1.3856    0.0000 C   0  0  0  0  0  0  0  0  0  0  0  0
   -0.0000    2.7713    0.0000 H   0  0  0  0  0  0  0  0  0  0  0  0
   -2.4000    1.3856    0.0000 N   0  0  0  1  0  0  0  0  0  0  0  0
   -3.2001    0.0000    0.0000 C   0  0  0  0  0  0  0  0  0  0  0  0
   -4.8000   -0.0000    0.0000 H   0  0  0  0  0  0  0  0  0  0  0  0
   -2.4000   -1.3856    0.0000 C   0  0  0  0  0  0  0  0  0  0  0  0
   -3.2001   -2.7713    0.0000 H   0  0  0  0  0  0  0  0  0  0  0  0
   -0.8000   -1.3856    0.0000 N   0  0  0  1  0  0  0  0  0  0  0  0
    2.4001    1.3856    0.0000 O   0  0  0  0  0  0  0  0  0  0  0  0
    4.0000   -1.3856    0.0000 H   0  0  0  0  0  0  0  0  0  0  0  0
    1.6000   -2.7713    0.0000 H   0  0  0  0  0  0  0  0  0  0  0  0
  1  2  1  0  0  0  0
  2  3  1  0  0  0  0
  3  4  4  0  0  0  0
  4  5  1  0  0  0  0
  4  6  4  0  0  0  0
  6  7  4  0  0  0  0
  7  8  1  0  0  0  0
  7  9  4  0  0  0  0
  9 10  1  0  0  0  0
  9 11  4  0  0  0  0
 11  3  4  0  0  0  0
  2 12  2  0  0  0  0
  1 13  1  0  0  0  0
  1 14  1  0  0  0  0
M  END
> <CAS>
98-96-4

> <NAME>
2-PYRAZINECARBOXAMIDE

> <preferred_name>
Pyrazinamide

> <iupac>
pyrazine-2-carboxamide

> <SMILES>
NC(=O)c1c[n]cc[n]1

> <Canonical_QSARr>
NC(=O)c1c[n]cc[n]1

> <InChI_Code_QSARr>
InChI=1S/C5H5N3O/c6-5(9)4-3-7-1-2-8-4/h1-3H,(H2,6,9)

> <InChI Key_QSARr>
IPEHBUMCGVEMRF-UHFFFAOYSA-N

> <Salt_Solvent>
?

> <WS Temperature>
25

> <WS Reference>
MERCK INDEX (1996)

> <dsstox_substance_id>
DTXSID9021215

> <LogMolar>
-0.9142

$$$$
99-06-9
  -INDIGO-01081615412D

 16 16  0  0  0  0  0  0  0  0999 V2000
   -1.3857    2.4000    0.0000 O   0  0  0  0  0  0  0  0  0  0  0  0
   -1.3857    0.8000    0.0000 C   0  0  0  0  0  0  0  0  0  0  0  0
   -2.7713   -0.0000    0.0000 O   0  0  0  0  0  0  0  0  0  0  0  0
   -4.1569    0.8000    0.0000 H   0  0  0  0  0  0  0  0  0  0  0  0
   -0.0001   -0.0000    0.0000 C   0  0  0  0  0  0  0  0  0  0  0  0
   -0.0001   -1.6000    0.0000 C   0  0  0  0  0  0  0  0  0  0  0  0
   -1.3857   -2.4000    0.0000 H   0  0  0  0  0  0  0  0  0  0  0  0
    1.3857   -2.4000    0.0000 C   0  0  0  0  0  0  0  0  0  0  0  0
    1.3857   -4.0000    0.0000 H   0  0  0  0  0  0  0  0  0  0  0  0
    2.7713   -1.6000    0.0000 C   0  0  0  0  0  0  0  0  0  0  0  0
    4.1569   -2.4000    0.0000 H   0  0  0  0  0  0  0  0  0  0  0  0
    2.7713   -0.0000    0.0000 C   0  0  0  0  0  0  0  0  0  0  0  0
    4.1569    0.8000    0.0000 O   0  0  0  0  0  0  0  0  0  0  0  0
    5.5426   -0.0000    0.0000 H   0  0  0  0  0  0  0  0  0  0  0  0
    1.3857    0.8000    0.0000 C   0  0  0  0  0  0  0  0  0  0  0  0
    1.3857    2.4000    0.0000 H   0  0  0  0  0  0  0  0  0  0  0  0
  1  2  2  0  0  0  0
  2  3  1  0  0  0  0
  3  4  1  0  0  0  0
  2  5  1  0  0  0  0
  5  6  4  0  0  0  0
  6  7  1  0  0  0  0
  6  8  4  0  0  0  0
  8  9  1  0  0  0  0
  8 10  4  0  0  0  0
 10 11  1  0  0  0  0
 10 12  4  0  0  0  0
 12 13  1  0  0  0  0
 13 14  1  0  0  0  0
 12 15  4  0  0  0  0
 15  5  4  0  0  0  0
 15 16  1  0  0  0  0
M  END
> <CAS>
99-06-9

> <NAME>
M-HYDROXYBENZOIC ACID

> <preferred_name>
3-Hydroxybenzoic acid

> <iupac>
3-hydroxybenzoic acid

> <SMILES>
Oc1cccc(c1)C(O)=O

> <Canonical_QSARr>
Oc1cccc(c1)C(O)=O

> <InChI_Code_QSARr>
InChI=1S/C7H6O3/c8-6-3-1-2-5(4-6)7(9)10/h1-4,8H,(H,9,10)

> <InChI Key_QSARr>
IJFXRHURBJZNAO-UHFFFAOYSA-N

> <Salt_Solvent>
?

> <WS Temperature>
25

> <WS Reference>
YALKOWSKY,SH & DANNENFELSER,RM (1992)

> <dsstox_substance_id>
DTXSID6021610

> <LogMolar>
-1.2799

$$$$
99-17-2
  -INDIGO-01081615412D

 50 52  0  0  0  0  0  0  0  0999 V2000
    3.9548   -1.5096    0.0000 C   0  0  0  0  0  0  0  0  0  0  0  0
    2.4513   -2.0570    0.0000 O   0  0  0  0  0  0  0  0  0  0  0  0
    1.2256   -1.0285    0.0000 C   0  0  0  0  0  0  0  0  0  0  0  0
    0.0001    0.0001    0.0000 C   0  0  0  0  0  0  0  0  0  0  0  0
   -0.7999    1.3856    0.0000 C   0  0  0  0  0  0  0  0  0  0  0  0
   -1.0779    2.9614    0.0000 O   0  0  0  0  0  0  0  0  0  0  0  0
    0.1479    3.9898    0.0000 H   0  0  0  0  0  0  0  0  0  0  0  0
    0.7036    1.9329    0.0000 H   0  0  0  0  0  0  0  0  0  0  0  0
   -2.4001    1.3856    0.0000 C   0  0  0  0  0  0  0  0  0  0  0  0
   -3.9035    1.9329    0.0000 O   0  0  0  0  0  0  0  0  0  0  0  0
   -4.1813    3.5085    0.0000 H   0  0  0  0  0  0  0  0  0  0  0  0
   -2.1221    2.9614    0.0000 H   0  0  0  0  0  0  0  0  0  0  0  0
   -3.2000    0.0001    0.0000 C   0  0  0  0  0  0  0  0  0  0  0  0
   -4.4258   -1.0285    0.0000 O   0  0  0  0  0  0  0  0  0  0  0  0
   -5.9292   -0.4812    0.0000 H   0  0  0  0  0  0  0  0  0  0  0  0
   -4.4258    1.0285    0.0000 H   0  0  0  0  0  0  0  0  0  0  0  0
   -2.4001   -1.3856    0.0000 C   0  0  0  0  0  0  0  0  0  0  0  0
   -2.1221   -2.9614    0.0000 O   0  0  0  0  0  0  0  0  0  0  0  0
   -3.3478   -3.9898    0.0000 C   0  0  0  0  0  0  0  0  0  0  0  0
   -4.8513   -3.4425    0.0000 C   0  0  0  0  0  0  0  0  0  0  0  0
   -5.1293   -1.8669    0.0000 H   0  0  0  0  0  0  0  0  0  0  0  0
   -6.0771   -4.4711    0.0000 C   0  0  0  0  0  0  0  0  0  0  0  0
   -7.5805   -3.9238    0.0000 H   0  0  0  0  0  0  0  0  0  0  0  0
   -5.7991   -6.0467    0.0000 C   0  0  0  0  0  0  0  0  0  0  0  0
   -7.0248   -7.0751    0.0000 H   0  0  0  0  0  0  0  0  0  0  0  0
   -4.2956   -6.5940    0.0000 C   0  0  0  0  0  0  0  0  0  0  0  0
   -4.0179   -8.1696    0.0000 H   0  0  0  0  0  0  0  0  0  0  0  0
   -3.0701   -5.5656    0.0000 C   0  0  0  0  0  0  0  0  0  0  0  0
   -1.5664   -6.1127    0.0000 C   0  0  0  0  0  0  0  0  0  0  0  0
   -0.0629   -6.6599    0.0000 O   0  0  0  0  0  0  0  0  0  0  0  0
    0.2148   -8.2356    0.0000 H   0  0  0  0  0  0  0  0  0  0  0  0
   -2.1138   -7.6163    0.0000 H   0  0  0  0  0  0  0  0  0  0  0  0
   -1.0193   -4.6091    0.0000 H   0  0  0  0  0  0  0  0  0  0  0  0
   -3.9035   -1.9329    0.0000 H   0  0  0  0  0  0  0  0  0  0  0  0
   -0.7999   -1.3856    0.0000 O   0  0  0  0  0  0  0  0  0  0  0  0
    1.2256    1.0285    0.0000 H   0  0  0  0  0  0  0  0  0  0  0  0
    2.2542    0.1973    0.0000 H   0  0  0  0  0  0  0  0  0  0  0  0
    0.1972   -2.2542    0.0000 H   0  0  0  0  0  0  0  0  0  0  0  0
    5.1805   -2.5381    0.0000 C   0  0  0  0  0  0  0  0  0  0  0  0
    4.9028   -4.1139    0.0000 C   0  0  0  0  0  0  0  0  0  0  0  0
    3.3991   -4.6610    0.0000 H   0  0  0  0  0  0  0  0  0  0  0  0
    6.1283   -5.1423    0.0000 C   0  0  0  0  0  0  0  0  0  0  0  0
    5.8506   -6.7181    0.0000 H   0  0  0  0  0  0  0  0  0  0  0  0
    7.6318   -4.5952    0.0000 C   0  0  0  0  0  0  0  0  0  0  0  0
    8.8575   -5.6236    0.0000 H   0  0  0  0  0  0  0  0  0  0  0  0
    7.9097   -3.0194    0.0000 C   0  0  0  0  0  0  0  0  0  0  0  0
    9.4132   -2.4720    0.0000 H   0  0  0  0  0  0  0  0  0  0  0  0
    6.6840   -1.9909    0.0000 C   0  0  0  0  0  0  0  0  0  0  0  0
    6.9620   -0.4152    0.0000 H   0  0  0  0  0  0  0  0  0  0  0  0
    4.2328    0.0659    0.0000 O   0  0  0  0  0  0  0  0  0  0  0  0
  1  2  1  0  0  0  0
  2  3  1  0  0  0  0
  3  4  1  0  0  0  0
  4  5  1  0  0  0  0
  5  6  1  0  0  0  0
  6  7  1  0  0  0  0
  5  8  1  0  0  0  0
  5  9  1  0  0  0  0
  9 10  1  0  0  0  0
 10 11  1  0  0  0  0
  9 12  1  0  0  0  0
  9 13  1  0  0  0  0
 13 14  1  0  0  0  0
 14 15  1  0  0  0  0
 13 16  1  0  0  0  0
 13 17  1  0  0  0  0
 17 18  1  0  0  0  0
 18 19  1  0  0  0  0
 19 20  4  0  0  0  0
 20 21  1  0  0  0  0
 20 22  4  0  0  0  0
 22 23  1  0  0  0  0
 22 24  4  0  0  0  0
 24 25  1  0  0  0  0
 24 26  4  0  0  0  0
 26 27  1  0  0  0  0
 26 28  4  0  0  0  0
 28 19  4  0  0  0  0
 28 29  1  0  0  0  0
 29 30  1  0  0  0  0
 30 31  1  0  0  0  0
 29 32  1  0  0  0  0
 29 33  1  0  0  0  0
 17 34  1  0  0  0  0
 17 35  1  0  0  0  0
 35  4  1  0  0  0  0
  4 36  1  0  0  0  0
  3 37  1  0  0  0  0
  3 38  1  0  0  0  0
  1 39  1  0  0  0  0
 39 40  4  0  0  0  0
 40 41  1  0  0  0  0
 40 42  4  0  0  0  0
 42 43  1  0  0  0  0
 42 44  4  0  0  0  0
 44 45  1  0  0  0  0
 44 46  4  0  0  0  0
 46 47  1  0  0  0  0
 46 48  4  0  0  0  0
 48 39  4  0  0  0  0
 48 49  1  0  0  0  0
  1 50  2  0  0  0  0
M  END
> <CAS>
99-17-2

> <NAME>
POPULIN

> <preferred_name>


> <iupac>


> <SMILES>
OCc1ccccc1O[C@@H]1O[C@H](COC(=O)c2ccccc2)[C@@H](O)[C@H](O)[C@H]1O

> <Canonical_QSARr>
OCc1ccccc1OC1OC(COC(=O)c2ccccc2)C(O)C(O)C1O

> <InChI_Code_QSARr>
InChI=1S/C20H22O8/c21-10-13-8-4-5-9-14(13)27-20-18(24)17(23)16(22)15(28-20)11-26-19(25)12-6-2-1-3-7-12/h1-9,15-18,20-24H,10-11H2

> <InChI Key_QSARr>
HHSKNLJWHGXWPK-UHFFFAOYSA-N

> <Salt_Solvent>
?

> <WS Temperature>


> <WS Reference>
MERCK INDEX (1996)

> <dsstox_substance_id>


> <LogMolar>
-2.8925

$$$$
99-34-3
  -INDIGO-01081615412D

 19 19  0  0  0  0  0  0  0  0999 V2000
   -1.3857    0.8000    0.0000 C   0  0  0  0  0  0  0  0  0  0  0  0
   -2.7713    0.0000    0.0000 C   0  0  0  0  0  0  0  0  0  0  0  0
   -4.1569    0.8000    0.0000 N   0  0  0  0  0  0  0  0  0  0  0  0
   -5.5426    0.0000    0.0000 O   0  0  0  0  0  0  0  0  0  0  0  0
   -4.1569    2.4000    0.0000 O   0  0  0  0  0  0  0  0  0  0  0  0
   -2.7713   -1.6000    0.0000 C   0  0  0  0  0  0  0  0  0  0  0  0
   -4.1569   -2.4000    0.0000 H   0  0  0  0  0  0  0  0  0  0  0  0
   -1.3857   -2.4000    0.0000 C   0  0  0  0  0  0  0  0  0  0  0  0
   -1.3857   -4.0000    0.0000 N   0  0  0  0  0  0  0  0  0  0  0  0
   -2.7713   -4.8000    0.0000 O   0  0  0  0  0  0  0  0  0  0  0  0
    0.0001   -4.8000    0.0000 O   0  0  0  0  0  0  0  0  0  0  0  0
    0.0001   -1.6000    0.0000 C   0  0  0  0  0  0  0  0  0  0  0  0
    1.3857   -2.4000    0.0000 H   0  0  0  0  0  0  0  0  0  0  0  0
    0.0001    0.0000    0.0000 C   0  0  0  0  0  0  0  0  0  0  0  0
    1.3857    0.8000    0.0000 C   0  0  0  0  0  0  0  0  0  0  0  0
    2.7713    0.0000    0.0000 O   0  0  0  0  0  0  0  0  0  0  0  0
    4.1569    0.8000    0.0000 H   0  0  0  0  0  0  0  0  0  0  0  0
    1.3857    2.4000    0.0000 O   0  0  0  0  0  0  0  0  0  0  0  0
   -1.3857    2.4000    0.0000 H   0  0  0  0  0  0  0  0  0  0  0  0
  1  2  4  0  0  0  0
  2  3  1  0  0  0  0
  3  4  1  0  0  0  0
  3  5  2  0  0  0  0
  2  6  4  0  0  0  0
  6  7  1  0  0  0  0
  6  8  4  0  0  0  0
  8  9  1  0  0  0  0
  9 10  1  0  0  0  0
  9 11  2  0  0  0  0
  8 12  4  0  0  0  0
 12 13  1  0  0  0  0
 12 14  4  0  0  0  0
 14  1  4  0  0  0  0
 14 15  1  0  0  0  0
 15 16  1  0  0  0  0
 16 17  1  0  0  0  0
 15 18  2  0  0  0  0
  1 19  1  0  0  0  0
M  CHG  4   3   1   4  -1   9   1  10  -1
M  END
> <CAS>
99-34-3

> <NAME>
3,5-DINITROBENZOIC ACID

> <preferred_name>
3,5-Dinitrobenzoic acid

> <iupac>
3,5-Dinitrobenzoic acid

> <SMILES>
[O-][N+](=O)c1cc(cc(c1)[N+]([O-])=O)C(O)=O

> <Canonical_QSARr>
[O-][N+](=O)c1cc(cc(c1)[N+]([O-])=O)C(O)=O

> <InChI_Code_QSARr>
InChI=1S/C7H4N2O6/c10-7(11)4-1-5(8(12)13)3-6(2-4)9(14)15/h1-3H,(H,10,11)

> <InChI Key_QSARr>
VYWYYJYRVSBHJQ-UHFFFAOYSA-N

> <Salt_Solvent>
?

> <WS Temperature>
25

> <WS Reference>
YALKOWSKY,SH & DANNENFELSER,RM (1992)

> <dsstox_substance_id>
DTXSID7059195

> <LogMolar>
-2.1962

$$$$
99-54-7
  -INDIGO-01081615412D

 14 14  0  0  0  0  0  0  0  0999 V2000
    1.6000    0.0000    0.0000 N   0  0  0  0  0  0  0  0  0  0  0  0
    0.0000   -0.0000    0.0000 C   0  0  0  0  0  0  0  0  0  0  0  0
   -0.8000    1.3856    0.0000 C   0  0  0  0  0  0  0  0  0  0  0  0
    0.0000    2.7713    0.0000 H   0  0  0  0  0  0  0  0  0  0  0  0
   -2.4000    1.3856    0.0000 C   0  0  0  0  0  0  0  0  0  0  0  0
   -3.2000    2.7713    0.0000 Cl  0  0  0  0  0  0  0  0  0  0  0  0
   -3.2000   -0.0000    0.0000 C   0  0  0  0  0  0  0  0  0  0  0  0
   -4.8000   -0.0000    0.0000 Cl  0  0  0  0  0  0  0  0  0  0  0  0
   -2.4000   -1.3856    0.0000 C   0  0  0  0  0  0  0  0  0  0  0  0
   -3.2000   -2.7713    0.0000 H   0  0  0  0  0  0  0  0  0  0  0  0
   -0.8000   -1.3856    0.0000 C   0  0  0  0  0  0  0  0  0  0  0  0
    0.0000   -2.7713    0.0000 H   0  0  0  0  0  0  0  0  0  0  0  0
    2.4000   -1.3856    0.0000 O   0  0  0  0  0  0  0  0  0  0  0  0
    2.4000    1.3856    0.0000 O   0  0  0  0  0  0  0  0  0  0  0  0
  1  2  1  0  0  0  0
  2  3  4  0  0  0  0
  3  4  1  0  0  0  0
  3  5  4  0  0  0  0
  5  6  1  0  0  0  0
  5  7  4  0  0  0  0
  7  8  1  0  0  0  0
  7  9  4  0  0  0  0
  9 10  1  0  0  0  0
  9 11  4  0  0  0  0
 11  2  4  0  0  0  0
 11 12  1  0  0  0  0
  1 13  1  0  0  0  0
  1 14  2  0  0  0  0
M  CHG  2   1   1  13  -1
M  END
> <CAS>
99-54-7

> <NAME>
3,4-DICHLORONITROBENZENE

> <preferred_name>
3,4-Dichloronitrobenzene

> <iupac>
1,2-dichloro-4-nitrobenzene

> <SMILES>
[O-][N+](=O)c1cc(Cl)c(Cl)cc1

> <Canonical_QSARr>
[O-][N+](=O)c1cc(Cl)c(Cl)cc1

> <InChI_Code_QSARr>
InChI=1S/C6H3Cl2NO2/c7-5-2-1-4(9(10)11)3-6(5)8/h1-3H

> <InChI Key_QSARr>
NTBYINQTYWZXLH-UHFFFAOYSA-N

> <Salt_Solvent>
?

> <WS Temperature>
20

> <WS Reference>
YALKOWSKY,SH & HE,Y (2003)

> <dsstox_substance_id>
DTXSID8024999

> <LogMolar>
-3.2005

$$$$
99-65-0
  -INDIGO-01081615412D

 16 16  0  0  0  0  0  0  0  0999 V2000
    0.0000   -0.0000    0.0000 C   0  0  0  0  0  0  0  0  0  0  0  0
    1.3856    0.8000    0.0000 N   0  0  0  0  0  0  0  0  0  0  0  0
    2.7713   -0.0000    0.0000 O   0  0  0  0  0  0  0  0  0  0  0  0
    1.3856    2.4000    0.0000 O   0  0  0  0  0  0  0  0  0  0  0  0
   -1.3857    0.8000    0.0000 C   0  0  0  0  0  0  0  0  0  0  0  0
   -1.3857    2.4000    0.0000 H   0  0  0  0  0  0  0  0  0  0  0  0
   -2.7713   -0.0000    0.0000 C   0  0  0  0  0  0  0  0  0  0  0  0
   -4.1569    0.8000    0.0000 N   0  0  0  0  0  0  0  0  0  0  0  0
   -5.5426   -0.0000    0.0000 O   0  0  0  0  0  0  0  0  0  0  0  0
   -4.1569    2.4000    0.0000 O   0  0  0  0  0  0  0  0  0  0  0  0
   -2.7713   -1.6000    0.0000 C   0  0  0  0  0  0  0  0  0  0  0  0
   -4.1569   -2.4000    0.0000 H   0  0  0  0  0  0  0  0  0  0  0  0
   -1.3856   -2.4000    0.0000 C   0  0  0  0  0  0  0  0  0  0  0  0
   -1.3856   -4.0000    0.0000 H   0  0  0  0  0  0  0  0  0  0  0  0
    0.0000   -1.6000    0.0000 C   0  0  0  0  0  0  0  0  0  0  0  0
    1.3857   -2.4000    0.0000 H   0  0  0  0  0  0  0  0  0  0  0  0
  1  2  1  0  0  0  0
  2  3  2  0  0  0  0
  2  4  1  0  0  0  0
  1  5  4  0  0  0  0
  5  6  1  0  0  0  0
  5  7  4  0  0  0  0
  7  8  1  0  0  0  0
  8  9  2  0  0  0  0
  8 10  1  0  0  0  0
  7 11  4  0  0  0  0
 11 12  1  0  0  0  0
 11 13  4  0  0  0  0
 13 14  1  0  0  0  0
 13 15  4  0  0  0  0
 15  1  4  0  0  0  0
 15 16  1  0  0  0  0
M  CHG  4   2   1   4  -1   8   1  10  -1
M  END
> <CAS>
99-65-0

> <NAME>
1,3-DINITROBENZENE

> <preferred_name>
1,3-Dinitrobenzene

> <iupac>
1,3-dinitrobenzene

> <SMILES>
[O-][N+](=O)c1cc(ccc1)[N+]([O-])=O

> <Canonical_QSARr>
[O-][N+](=O)c1cc(ccc1)[N+]([O-])=O

> <InChI_Code_QSARr>
InChI=1S/C6H4N2O4/c9-7(10)5-2-1-3-6(4-5)8(11)12/h1-4H

> <InChI Key_QSARr>
WDCYWAQPCXBPJA-UHFFFAOYSA-N

> <Salt_Solvent>
?

> <WS Temperature>
25

> <WS Reference>
SPANGGORD,RJ ET AL. (1980)

> <dsstox_substance_id>
DTXSID9024065

> <LogMolar>
-2.4989

$$$$
99-82-1
  -INDIGO-01081615412D

 30 30  0  0  0  0  0  0  0  0999 V2000
    4.3470    1.8778    0.0000 C   0  0  0  0  0  0  0  0  0  0  0  0
    2.7713    1.6000    0.0000 C   0  0  0  0  0  0  0  0  0  0  0  0
    1.3856    2.4000    0.0000 C   0  0  0  0  0  0  0  0  0  0  0  0
    2.4140    3.6257    0.0000 H   0  0  0  0  0  0  0  0  0  0  0  0
    0.3571    3.6257    0.0000 H   0  0  0  0  0  0  0  0  0  0  0  0
    0.0000    1.6000    0.0000 C   0  0  0  0  0  0  0  0  0  0  0  0
   -0.5472    3.1035    0.0000 H   0  0  0  0  0  0  0  0  0  0  0  0
   -1.0284    1.7813    0.0000 H   0  0  0  0  0  0  0  0  0  0  0  0
    0.0000   -0.0000    0.0000 C   0  0  0  0  0  0  0  0  0  0  0  0
   -1.5757    0.2778    0.0000 C   0  0  0  0  0  0  0  0  0  0  0  0
   -2.9614    1.0778    0.0000 C   0  0  0  0  0  0  0  0  0  0  0  0
   -4.3470    1.8778    0.0000 H   0  0  0  0  0  0  0  0  0  0  0  0
   -4.3470    0.2778    0.0000 H   0  0  0  0  0  0  0  0  0  0  0  0
   -2.9614    2.6779    0.0000 H   0  0  0  0  0  0  0  0  0  0  0  0
   -2.3756   -1.1078    0.0000 C   0  0  0  0  0  0  0  0  0  0  0  0
   -3.1758   -2.4934    0.0000 H   0  0  0  0  0  0  0  0  0  0  0  0
   -1.5757   -2.4934    0.0000 H   0  0  0  0  0  0  0  0  0  0  0  0
   -3.9757   -1.1078    0.0000 H   0  0  0  0  0  0  0  0  0  0  0  0
   -1.5757    1.3222    0.0000 H   0  0  0  0  0  0  0  0  0  0  0  0
   -0.5472   -1.5035    0.0000 H   0  0  0  0  0  0  0  0  0  0  0  0
    1.3856   -0.8000    0.0000 C   0  0  0  0  0  0  0  0  0  0  0  0
    0.3571   -2.0257    0.0000 H   0  0  0  0  0  0  0  0  0  0  0  0
    2.4140   -2.0257    0.0000 H   0  0  0  0  0  0  0  0  0  0  0  0
    2.7713   -0.0000    0.0000 C   0  0  0  0  0  0  0  0  0  0  0  0
    3.3185   -1.5035    0.0000 H   0  0  0  0  0  0  0  0  0  0  0  0
    4.3470    0.2778    0.0000 H   0  0  0  0  0  0  0  0  0  0  0  0
    3.3185    3.1035    0.0000 H   0  0  0  0  0  0  0  0  0  0  0  0
    5.9227    2.1557    0.0000 H   0  0  0  0  0  0  0  0  0  0  0  0
    4.8942    3.3813    0.0000 H   0  0  0  0  0  0  0  0  0  0  0  0
    5.3755    0.6522    0.0000 H   0  0  0  0  0  0  0  0  0  0  0  0
  1  2  1  0  0  0  0
  2  3  1  0  0  0  0
  3  4  1  0  0  0  0
  3  5  1  0  0  0  0
  3  6  1  0  0  0  0
  6  7  1  0  0  0  0
  6  8  1  0  0  0  0
  6  9  1  0  0  0  0
  9 10  1  0  0  0  0
 10 11  1  0  0  0  0
 11 12  1  0  0  0  0
 11 13  1  0  0  0  0
 11 14  1  0  0  0  0
 10 15  1  0  0  0  0
 15 16  1  0  0  0  0
 15 17  1  0  0  0  0
 15 18  1  0  0  0  0
 10 19  1  0  0  0  0
  9 20  1  0  0  0  0
  9 21  1  0  0  0  0
 21 22  1  0  0  0  0
 21 23  1  0  0  0  0
 21 24  1  0  0  0  0
 24  2  1  0  0  0  0
 24 25  1  0  0  0  0
 24 26  1  0  0  0  0
  2 27  1  0  0  0  0
  1 28  1  0  0  0  0
  1 29  1  0  0  0  0
  1 30  1  0  0  0  0
M  END
> <CAS>
99-82-1

> <NAME>
P-MENTHANE

> <preferred_name>
p-Menthane

> <iupac>
1-methyl-4-(propan-2-yl)cyclohexane

> <SMILES>
CC(C)C1CCC(C)CC1

> <Canonical_QSARr>
CC(C)C1CCC(C)CC1

> <InChI_Code_QSARr>
InChI=1S/C10H20/c1-8(2)10-6-4-9(3)5-7-10/h8-10H,4-7H2,1-3H3

> <InChI Key_QSARr>
CFJYNSNXFXLKNS-UHFFFAOYSA-N

> <Salt_Solvent>
?

> <WS Temperature>
25

> <WS Reference>
CHEMICALS INSPECTION AND TESTING INSTITU (1992)

> <dsstox_substance_id>
DTXSID9025530

> <LogMolar>
-5.6998

$$$$
99-93-4
  -INDIGO-01081615412D

 18 18  0  0  0  0  0  0  0  0999 V2000
    1.6000    0.0000    0.0000 C   0  0  0  0  0  0  0  0  0  0  0  0
    0.0000   -0.0000    0.0000 C   0  0  0  0  0  0  0  0  0  0  0  0
   -0.8001    1.3856    0.0000 C   0  0  0  0  0  0  0  0  0  0  0  0
    0.0000    2.7713    0.0000 H   0  0  0  0  0  0  0  0  0  0  0  0
   -2.4000    1.3856    0.0000 C   0  0  0  0  0  0  0  0  0  0  0  0
   -3.2000    2.7713    0.0000 H   0  0  0  0  0  0  0  0  0  0  0  0
   -3.2000   -0.0000    0.0000 C   0  0  0  0  0  0  0  0  0  0  0  0
   -4.8000   -0.0000    0.0000 O   0  0  0  0  0  0  0  0  0  0  0  0
   -5.6000    1.3856    0.0000 H   0  0  0  0  0  0  0  0  0  0  0  0
   -2.4000   -1.3856    0.0000 C   0  0  0  0  0  0  0  0  0  0  0  0
   -3.2000   -2.7713    0.0000 H   0  0  0  0  0  0  0  0  0  0  0  0
   -0.8001   -1.3856    0.0000 C   0  0  0  0  0  0  0  0  0  0  0  0
    0.0000   -2.7713    0.0000 H   0  0  0  0  0  0  0  0  0  0  0  0
    2.3999    1.3856    0.0000 O   0  0  0  0  0  0  0  0  0  0  0  0
    2.4001   -1.3856    0.0000 C   0  0  0  0  0  0  0  0  0  0  0  0
    3.2000   -2.7713    0.0000 H   0  0  0  0  0  0  0  0  0  0  0  0
    4.0000   -1.3856    0.0000 H   0  0  0  0  0  0  0  0  0  0  0  0
    1.6000   -2.7713    0.0000 H   0  0  0  0  0  0  0  0  0  0  0  0
  1  2  1  0  0  0  0
  2  3  4  0  0  0  0
  3  4  1  0  0  0  0
  3  5  4  0  0  0  0
  5  6  1  0  0  0  0
  5  7  4  0  0  0  0
  7  8  1  0  0  0  0
  8  9  1  0  0  0  0
  7 10  4  0  0  0  0
 10 11  1  0  0  0  0
 10 12  4  0  0  0  0
 12  2  4  0  0  0  0
 12 13  1  0  0  0  0
  1 14  2  0  0  0  0
  1 15  1  0  0  0  0
 15 16  1  0  0  0  0
 15 17  1  0  0  0  0
 15 18  1  0  0  0  0
M  END
> <CAS>
99-93-4

> <NAME>
P-HYDROXYACETOPHENONE

> <preferred_name>
4-Hydroxyacetophenone

> <iupac>
1-(4-hydroxyphenyl)ethanone

> <SMILES>
CC(=O)c1ccc(O)cc1

> <Canonical_QSARr>
CC(=O)c1ccc(O)cc1

> <InChI_Code_QSARr>
InChI=1S/C8H8O2/c1-6(9)7-2-4-8(10)5-3-7/h2-5,10H,1H3

> <InChI Key_QSARr>
TXFPEBPIARQUIG-UHFFFAOYSA-N

> <Salt_Solvent>
?

> <WS Temperature>
22

> <WS Reference>
YALKOWSKY,SH & DANNENFELSER,RM (1992)

> <dsstox_substance_id>
DTXSID0029133

> <LogMolar>
-1.1384

$$$$
99-99-0
  -INDIGO-01081615412D

 17 17  0  0  0  0  0  0  0  0999 V2000
   -2.4000    1.3856    0.0000 C   0  0  0  0  0  0  0  0  0  0  0  0
   -3.2000   -0.0000    0.0000 C   0  0  0  0  0  0  0  0  0  0  0  0
   -4.8000   -0.0000    0.0000 N   0  0  0  0  0  0  0  0  0  0  0  0
   -5.6000   -1.3856    0.0000 O   0  0  0  0  0  0  0  0  0  0  0  0
   -5.6000    1.3856    0.0000 O   0  0  0  0  0  0  0  0  0  0  0  0
   -2.4000   -1.3856    0.0000 C   0  0  0  0  0  0  0  0  0  0  0  0
   -3.2000   -2.7713    0.0000 H   0  0  0  0  0  0  0  0  0  0  0  0
   -0.8000   -1.3856    0.0000 C   0  0  0  0  0  0  0  0  0  0  0  0
   -0.0000   -2.7713    0.0000 H   0  0  0  0  0  0  0  0  0  0  0  0
   -0.0000    0.0000    0.0000 C   0  0  0  0  0  0  0  0  0  0  0  0
    1.6001    0.0000    0.0000 C   0  0  0  0  0  0  0  0  0  0  0  0
    3.2000    0.0000    0.0000 H   0  0  0  0  0  0  0  0  0  0  0  0
    2.4000    1.3856    0.0000 H   0  0  0  0  0  0  0  0  0  0  0  0
    2.4000   -1.3856    0.0000 H   0  0  0  0  0  0  0  0  0  0  0  0
   -0.8000    1.3856    0.0000 C   0  0  0  0  0  0  0  0  0  0  0  0
   -0.0000    2.7713    0.0000 H   0  0  0  0  0  0  0  0  0  0  0  0
   -3.2000    2.7713    0.0000 H   0  0  0  0  0  0  0  0  0  0  0  0
  1  2  4  0  0  0  0
  2  3  1  0  0  0  0
  3  4  1  0  0  0  0
  3  5  2  0  0  0  0
  2  6  4  0  0  0  0
  6  7  1  0  0  0  0
  6  8  4  0  0  0  0
  8  9  1  0  0  0  0
  8 10  4  0  0  0  0
 10 11  1  0  0  0  0
 11 12  1  0  0  0  0
 11 13  1  0  0  0  0
 11 14  1  0  0  0  0
 10 15  4  0  0  0  0
 15  1  4  0  0  0  0
 15 16  1  0  0  0  0
  1 17  1  0  0  0  0
M  CHG  2   3   1   4  -1
M  END
> <CAS>
99-99-0

> <NAME>
P-NITROTOLUENE

> <preferred_name>
4-Nitrotoluene

> <iupac>
1-methyl-4-nitrobenzene

> <SMILES>
Cc1ccc(cc1)[N+]([O-])=O

> <Canonical_QSARr>
Cc1ccc(cc1)[N+]([O-])=O

> <InChI_Code_QSARr>
InChI=1S/C7H7NO2/c1-6-2-4-7(5-3-6)8(9)10/h2-5H,1H3

> <InChI Key_QSARr>
ZPTVNYMJQHSSEA-UHFFFAOYSA-N

> <Salt_Solvent>
?

> <WS Temperature>
30

> <WS Reference>
GROSS,PM ET AL. (1933)

> <dsstox_substance_id>
DTXSID5023792

> <LogMolar>
-2.4917

$$$$
100-26-5
  -INDIGO-01081615412D

 17 17  0  0  0  0  0  0  0  0999 V2000
    0.0001   -0.0000    0.0000 C   0  0  0  0  0  0  0  0  0  0  0  0
   -0.7999    1.3856    0.0000 C   0  0  0  0  0  0  0  0  0  0  0  0
    0.0001    2.7713    0.0000 H   0  0  0  0  0  0  0  0  0  0  0  0
   -2.4001    1.3856    0.0000 N   0  0  0  1  0  0  0  0  0  0  0  0
   -3.2001   -0.0000    0.0000 C   0  0  0  0  0  0  0  0  0  0  0  0
   -4.8000   -0.0000    0.0000 C   0  0  0  0  0  0  0  0  0  0  0  0
   -5.6000   -1.3856    0.0000 O   0  0  0  0  0  0  0  0  0  0  0  0
   -5.6000    1.3856    0.0000 O   0  0  0  0  0  0  0  0  0  0  0  0
   -7.2000    1.3856    0.0000 H   0  0  0  0  0  0  0  0  0  0  0  0
   -2.4001   -1.3856    0.0000 C   0  0  0  0  0  0  0  0  0  0  0  0
   -3.2001   -2.7713    0.0000 H   0  0  0  0  0  0  0  0  0  0  0  0
   -0.7999   -1.3856    0.0000 C   0  0  0  0  0  0  0  0  0  0  0  0
    0.0001   -2.7713    0.0000 H   0  0  0  0  0  0  0  0  0  0  0  0
    1.6000    0.0000    0.0000 C   0  0  0  0  0  0  0  0  0  0  0  0
    2.4000   -1.3856    0.0000 O   0  0  0  0  0  0  0  0  0  0  0  0
    2.4000    1.3856    0.0000 O   0  0  0  0  0  0  0  0  0  0  0  0
    4.0000    1.3856    0.0000 H   0  0  0  0  0  0  0  0  0  0  0  0
  1  2  4  0  0  0  0
  2  3  1  0  0  0  0
  2  4  4  0  0  0  0
  4  5  4  0  0  0  0
  5  6  1  0  0  0  0
  6  7  2  0  0  0  0
  6  8  1  0  0  0  0
  8  9  1  0  0  0  0
  5 10  4  0  0  0  0
 10 11  1  0  0  0  0
 10 12  4  0  0  0  0
 12  1  4  0  0  0  0
 12 13  1  0  0  0  0
  1 14  1  0  0  0  0
 14 15  2  0  0  0  0
 14 16  1  0  0  0  0
 16 17  1  0  0  0  0
M  END
> <CAS>
100-26-5

> <NAME>
PYRIDINE-2,5-DICARBOXYLIC ACID

> <preferred_name>
2,5-Pyridinedicarboxylic acid

> <iupac>
Pyridine-2,5-dicarboxylic acid

> <SMILES>
OC(=O)c1ccc(c[n]1)C(O)=O

> <Canonical_QSARr>
OC(=O)c1ccc(c[n]1)C(O)=O

> <InChI_Code_QSARr>
InChI=1S/C7H5NO4/c9-6(10)4-1-2-5(7(11)12)8-3-4/h1-3H,(H,9,10)(H,11,12)

> <InChI Key_QSARr>
LVPMIMZXDYBCDF-UHFFFAOYSA-N

> <Salt_Solvent>
?

> <WS Temperature>
25

> <WS Reference>
YALKOWSKY,SH & DANNENFELSER,RM (1992)

> <dsstox_substance_id>
DTXSID3059210

> <LogMolar>
-2.1296

$$$$
100-42-5
  -INDIGO-01081615412D

 16 16  0  0  0  0  0  0  0  0999 V2000
    2.4001   -1.3856    0.0000 C   0  0  0  0  0  0  0  0  0  0  0  0
    1.6000    0.0000    0.0000 C   0  0  0  0  0  0  0  0  0  0  0  0
   -0.0000   -0.0000    0.0000 C   0  0  0  0  0  0  0  0  0  0  0  0
   -0.8000    1.3856    0.0000 C   0  0  0  0  0  0  0  0  0  0  0  0
   -0.0000    2.7713    0.0000 H   0  0  0  0  0  0  0  0  0  0  0  0
   -2.4000    1.3856    0.0000 C   0  0  0  0  0  0  0  0  0  0  0  0
   -3.2001    2.7713    0.0000 H   0  0  0  0  0  0  0  0  0  0  0  0
   -3.2001   -0.0000    0.0000 C   0  0  0  0  0  0  0  0  0  0  0  0
   -4.8000   -0.0000    0.0000 H   0  0  0  0  0  0  0  0  0  0  0  0
   -2.4000   -1.3856    0.0000 C   0  0  0  0  0  0  0  0  0  0  0  0
   -3.2001   -2.7713    0.0000 H   0  0  0  0  0  0  0  0  0  0  0  0
   -0.8000   -1.3856    0.0000 C   0  0  0  0  0  0  0  0  0  0  0  0
   -0.0000   -2.7713    0.0000 H   0  0  0  0  0  0  0  0  0  0  0  0
    2.4001    1.3856    0.0000 H   0  0  0  0  0  0  0  0  0  0  0  0
    4.0000   -1.3856    0.0000 H   0  0  0  0  0  0  0  0  0  0  0  0
    1.6000   -2.7713    0.0000 H   0  0  0  0  0  0  0  0  0  0  0  0
  1  2  2  0  0  0  0
  2  3  1  0  0  0  0
  3  4  4  0  0  0  0
  4  5  1  0  0  0  0
  4  6  4  0  0  0  0
  6  7  1  0  0  0  0
  6  8  4  0  0  0  0
  8  9  1  0  0  0  0
  8 10  4  0  0  0  0
 10 11  1  0  0  0  0
 10 12  4  0  0  0  0
 12  3  4  0  0  0  0
 12 13  1  0  0  0  0
  2 14  1  0  0  0  0
  1 15  1  0  0  0  0
  1 16  1  0  0  0  0
M  END
> <CAS>
100-42-5

> <NAME>
STYRENE

> <preferred_name>
Styrene

> <iupac>
ethenylbenzene

> <SMILES>
C=Cc1ccccc1

> <Canonical_QSARr>
C=Cc1ccccc1

> <InChI_Code_QSARr>
InChI=1S/C8H8/c1-2-8-6-4-3-5-7-8/h2-7H,1H2

> <InChI Key_QSARr>
PPBRXRYQALVLMV-UHFFFAOYSA-N

> <Salt_Solvent>
?

> <WS Temperature>
25

> <WS Reference>
YALKOWSKY,SH & DANNENFELSER,RM (1992)

> <dsstox_substance_id>
DTXSID2021284

> <LogMolar>
-2.5263

$$$$
100-47-0
  -INDIGO-01081615412D

 13 13  0  0  0  0  0  0  0  0999 V2000
    3.2000    0.0000    0.0000 N   0  0  0  0  0  0  0  0  0  0  0  0
    1.6000    0.0000    0.0000 C   0  0  0  0  0  0  0  0  0  0  0  0
    0.0000   -0.0000    0.0000 C   0  0  0  0  0  0  0  0  0  0  0  0
   -0.8001    1.3856    0.0000 C   0  0  0  0  0  0  0  0  0  0  0  0
    0.0000    2.7713    0.0000 H   0  0  0  0  0  0  0  0  0  0  0  0
   -2.4001    1.3856    0.0000 C   0  0  0  0  0  0  0  0  0  0  0  0
   -3.2000    2.7713    0.0000 H   0  0  0  0  0  0  0  0  0  0  0  0
   -3.2000   -0.0000    0.0000 C   0  0  0  0  0  0  0  0  0  0  0  0
   -4.8000   -0.0000    0.0000 H   0  0  0  0  0  0  0  0  0  0  0  0
   -2.4001   -1.3856    0.0000 C   0  0  0  0  0  0  0  0  0  0  0  0
   -3.2000   -2.7713    0.0000 H   0  0  0  0  0  0  0  0  0  0  0  0
   -0.8001   -1.3856    0.0000 C   0  0  0  0  0  0  0  0  0  0  0  0
    0.0000   -2.7713    0.0000 H   0  0  0  0  0  0  0  0  0  0  0  0
  1  2  3  0  0  0  0
  2  3  1  0  0  0  0
  3  4  4  0  0  0  0
  4  5  1  0  0  0  0
  4  6  4  0  0  0  0
  6  7  1  0  0  0  0
  6  8  4  0  0  0  0
  8  9  1  0  0  0  0
  8 10  4  0  0  0  0
 10 11  1  0  0  0  0
 10 12  4  0  0  0  0
 12  3  4  0  0  0  0
 12 13  1  0  0  0  0
M  END
> <CAS>
100-47-0

> <NAME>
BENZONITRILE

> <preferred_name>
Benzonitrile

> <iupac>
benzonitrile

> <SMILES>
N#Cc1ccccc1

> <Canonical_QSARr>
N#Cc1ccccc1

> <InChI_Code_QSARr>
InChI=1S/C7H5N/c8-6-7-4-2-1-3-5-7/h1-5H

> <InChI Key_QSARr>
JFDZBHWFFUWGJE-UHFFFAOYSA-N

> <Salt_Solvent>
?

> <WS Temperature>
25

> <WS Reference>
RIDDICK,JA ET AL. (1986)

> <dsstox_substance_id>
DTXSID7021491

> <LogMolar>
-1.7123

$$$$
100-54-9
  -INDIGO-01081615412D

 12 12  0  0  0  0  0  0  0  0999 V2000
    2.4001    1.3856    0.0000 N   0  0  0  1  0  0  0  0  0  0  0  0
    0.7999    1.3856    0.0000 C   0  0  0  0  0  0  0  0  0  0  0  0
    0.0000    2.7713    0.0000 H   0  0  0  0  0  0  0  0  0  0  0  0
    0.0000    0.0000    0.0000 C   0  0  0  0  0  0  0  0  0  0  0  0
   -1.6000    0.0000    0.0000 C   0  0  0  0  0  0  0  0  0  0  0  0
   -3.2000    0.0000    0.0000 N   0  0  0  0  0  0  0  0  0  0  0  0
    0.8001   -1.3856    0.0000 C   0  0  0  0  0  0  0  0  0  0  0  0
    0.0000   -2.7713    0.0000 H   0  0  0  0  0  0  0  0  0  0  0  0
    2.3999   -1.3856    0.0000 C   0  0  0  0  0  0  0  0  0  0  0  0
    3.2000   -2.7713    0.0000 H   0  0  0  0  0  0  0  0  0  0  0  0
    3.2000    0.0000    0.0000 C   0  0  0  0  0  0  0  0  0  0  0  0
    4.8000    0.0000    0.0000 H   0  0  0  0  0  0  0  0  0  0  0  0
  1  2  4  0  0  0  0
  2  3  1  0  0  0  0
  2  4  4  0  0  0  0
  4  5  1  0  0  0  0
  5  6  3  0  0  0  0
  4  7  4  0  0  0  0
  7  8  1  0  0  0  0
  7  9  4  0  0  0  0
  9 10  1  0  0  0  0
  9 11  4  0  0  0  0
 11  1  4  0  0  0  0
 11 12  1  0  0  0  0
M  END
> <CAS>
100-54-9

> <NAME>
3-CYANOPYRIDINE

> <preferred_name>
3-Pyridinecarbonitrile

> <iupac>
pyridine-3-carbonitrile

> <SMILES>
N#Cc1c[n]ccc1

> <Canonical_QSARr>
N#Cc1c[n]ccc1

> <InChI_Code_QSARr>
InChI=1S/C6H4N2/c7-4-6-2-1-3-8-5-6/h1-3,5H

> <InChI Key_QSARr>
GZPHSAQLYPIAIN-UHFFFAOYSA-N

> <Salt_Solvent>
?

> <WS Temperature>
20

> <WS Reference>
KIRK-OTHMER; 4th ed, 20:645 (1996)

> <dsstox_substance_id>
DTXSID1026665

> <LogMolar>
0.1128

$$$$
100-64-1
  -INDIGO-01081615412D

 19 19  0  0  0  0  0  0  0  0999 V2000
    1.5757   -0.2778    0.0000 N   0  0  0  0  0  0  0  0  0  0  0  0
   -0.0000    0.0000    0.0000 C   0  0  0  0  0  0  0  0  0  0  0  0
   -1.3857    0.8000    0.0000 C   0  0  0  0  0  0  0  0  0  0  0  0
   -0.3571    2.0257    0.0000 H   0  0  0  0  0  0  0  0  0  0  0  0
   -2.4141    2.0257    0.0000 H   0  0  0  0  0  0  0  0  0  0  0  0
   -2.7712    0.0000    0.0000 C   0  0  0  0  0  0  0  0  0  0  0  0
   -3.3185    1.5035    0.0000 H   0  0  0  0  0  0  0  0  0  0  0  0
   -4.3470   -0.2778    0.0000 H   0  0  0  0  0  0  0  0  0  0  0  0
   -2.7712   -1.6000    0.0000 C   0  0  0  0  0  0  0  0  0  0  0  0
   -4.3470   -1.3222    0.0000 H   0  0  0  0  0  0  0  0  0  0  0  0
   -3.3185   -3.1035    0.0000 H   0  0  0  0  0  0  0  0  0  0  0  0
   -1.3857   -2.4000    0.0000 C   0  0  0  0  0  0  0  0  0  0  0  0
   -2.4141   -3.6257    0.0000 H   0  0  0  0  0  0  0  0  0  0  0  0
   -0.3571   -3.6257    0.0000 H   0  0  0  0  0  0  0  0  0  0  0  0
   -0.0000   -1.6000    0.0000 C   0  0  0  0  0  0  0  0  0  0  0  0
    0.5472   -3.1035    0.0000 H   0  0  0  0  0  0  0  0  0  0  0  0
    1.5757   -1.3222    0.0000 H   0  0  0  0  0  0  0  0  0  0  0  0
    0.5472    1.5035    0.0000 H   0  0  0  0  0  0  0  0  0  0  0  0
    2.6042    0.9478    0.0000 O   0  0  0  0  0  0  0  0  0  0  0  0
  1  2  1  0  0  0  0
  2  3  1  0  0  0  0
  3  4  1  0  0  0  0
  3  5  1  0  0  0  0
  3  6  1  0  0  0  0
  6  7  1  0  0  0  0
  6  8  1  0  0  0  0
  6  9  1  0  0  0  0
  9 10  1  0  0  0  0
  9 11  1  0  0  0  0
  9 12  1  0  0  0  0
 12 13  1  0  0  0  0
 12 14  1  0  0  0  0
 12 15  1  0  0  0  0
 15  2  1  0  0  0  0
 15 16  1  0  0  0  0
 15 17  1  0  0  0  0
  2 18  1  0  0  0  0
  1 19  2  0  0  0  0
M  END
> <CAS>
100-64-1

> <NAME>
CYCLOHEXANONE OXIME

> <preferred_name>
Cyclohexanone oxime

> <iupac>
N-hydroxycyclohexanimine

> <SMILES>
ON=C1CCCCC1

> <Canonical_QSARr>
O=NC1CCCCC1

> <InChI_Code_QSARr>
InChI=1S/C6H11NO/c8-7-6-4-2-1-3-5-6/h6H,1-5H2

> <InChI Key_QSARr>
AFLQDEOAJRGCOW-UHFFFAOYSA-N

> <Salt_Solvent>
?

> <WS Temperature>
25

> <WS Reference>
BEILSTEIN

> <dsstox_substance_id>
DTXSID4021842

> <LogMolar>
-0.7984

$$$$
100-69-6
  -INDIGO-01081615412D

 15 15  0  0  0  0  0  0  0  0999 V2000
    0.8000    1.3856    0.0000 N   0  0  0  1  0  0  0  0  0  0  0  0
    0.0000   -0.0000    0.0000 C   0  0  0  0  0  0  0  0  0  0  0  0
   -1.6000   -0.0000    0.0000 C   0  0  0  0  0  0  0  0  0  0  0  0
   -2.4001    1.3856    0.0000 C   0  0  0  0  0  0  0  0  0  0  0  0
   -4.0000    1.3856    0.0000 H   0  0  0  0  0  0  0  0  0  0  0  0
   -1.6000    2.7713    0.0000 H   0  0  0  0  0  0  0  0  0  0  0  0
   -2.4001   -1.3856    0.0000 H   0  0  0  0  0  0  0  0  0  0  0  0
    0.8000   -1.3856    0.0000 C   0  0  0  0  0  0  0  0  0  0  0  0
    0.0000   -2.7713    0.0000 H   0  0  0  0  0  0  0  0  0  0  0  0
    2.4000   -1.3856    0.0000 C   0  0  0  0  0  0  0  0  0  0  0  0
    3.2001   -2.7713    0.0000 H   0  0  0  0  0  0  0  0  0  0  0  0
    3.2001    0.0000    0.0000 C   0  0  0  0  0  0  0  0  0  0  0  0
    4.8000    0.0000    0.0000 H   0  0  0  0  0  0  0  0  0  0  0  0
    2.4000    1.3856    0.0000 C   0  0  0  0  0  0  0  0  0  0  0  0
    3.2001    2.7713    0.0000 H   0  0  0  0  0  0  0  0  0  0  0  0
  1  2  4  0  0  0  0
  2  3  1  0  0  0  0
  3  4  2  0  0  0  0
  4  5  1  0  0  0  0
  4  6  1  0  0  0  0
  3  7  1  0  0  0  0
  2  8  4  0  0  0  0
  8  9  1  0  0  0  0
  8 10  4  0  0  0  0
 10 11  1  0  0  0  0
 10 12  4  0  0  0  0
 12 13  1  0  0  0  0
 12 14  4  0  0  0  0
 14  1  4  0  0  0  0
 14 15  1  0  0  0  0
M  END
> <CAS>
100-69-6

> <NAME>
2-VINYLPYRIDINE

> <preferred_name>
2-Vinylpyridine

> <iupac>
2-ethenylpyridine

> <SMILES>
C=Cc1cccc[n]1

> <Canonical_QSARr>
C=Cc1cccc[n]1

> <InChI_Code_QSARr>
InChI=1S/C7H7N/c1-2-7-5-3-4-6-8-7/h2-6H,1H2

> <InChI Key_QSARr>
KGIGUEBEKRSTEW-UHFFFAOYSA-N

> <Salt_Solvent>
?

> <WS Temperature>
20

> <WS Reference>
GOE,GL (1982)

> <dsstox_substance_id>
DTXSID1026667

> <LogMolar>
-0.5824

$$$$
100-80-1
  -INDIGO-01081615412D

 19 19  0  0  0  0  0  0  0  0999 V2000
    2.7713   -0.0000    0.0000 C   0  0  0  0  0  0  0  0  0  0  0  0
    4.1570    0.8000    0.0000 C   0  0  0  0  0  0  0  0  0  0  0  0
    5.5426   -0.0000    0.0000 C   0  0  0  0  0  0  0  0  0  0  0  0
    6.9282    0.8000    0.0000 H   0  0  0  0  0  0  0  0  0  0  0  0
    5.5426   -1.6000    0.0000 H   0  0  0  0  0  0  0  0  0  0  0  0
    4.1570    2.4000    0.0000 H   0  0  0  0  0  0  0  0  0  0  0  0
    1.3856    0.8000    0.0000 C   0  0  0  0  0  0  0  0  0  0  0  0
    1.3856    2.4000    0.0000 H   0  0  0  0  0  0  0  0  0  0  0  0
   -0.0000   -0.0000    0.0000 C   0  0  0  0  0  0  0  0  0  0  0  0
   -1.3857    0.8000    0.0000 C   0  0  0  0  0  0  0  0  0  0  0  0
   -2.7713    1.6000    0.0000 H   0  0  0  0  0  0  0  0  0  0  0  0
   -2.7713   -0.0000    0.0000 H   0  0  0  0  0  0  0  0  0  0  0  0
   -1.3857    2.4000    0.0000 H   0  0  0  0  0  0  0  0  0  0  0  0
   -0.0000   -1.6000    0.0000 C   0  0  0  0  0  0  0  0  0  0  0  0
   -1.3857   -2.4000    0.0000 H   0  0  0  0  0  0  0  0  0  0  0  0
    1.3856   -2.4000    0.0000 C   0  0  0  0  0  0  0  0  0  0  0  0
    1.3856   -4.0000    0.0000 H   0  0  0  0  0  0  0  0  0  0  0  0
    2.7713   -1.6000    0.0000 C   0  0  0  0  0  0  0  0  0  0  0  0
    4.1570   -2.4000    0.0000 H   0  0  0  0  0  0  0  0  0  0  0  0
  1  2  1  0  0  0  0
  2  3  2  0  0  0  0
  3  4  1  0  0  0  0
  3  5  1  0  0  0  0
  2  6  1  0  0  0  0
  1  7  4  0  0  0  0
  7  8  1  0  0  0  0
  7  9  4  0  0  0  0
  9 10  1  0  0  0  0
 10 11  1  0  0  0  0
 10 12  1  0  0  0  0
 10 13  1  0  0  0  0
  9 14  4  0  0  0  0
 14 15  1  0  0  0  0
 14 16  4  0  0  0  0
 16 17  1  0  0  0  0
 16 18  4  0  0  0  0
 18  1  4  0  0  0  0
 18 19  1  0  0  0  0
M  END
> <CAS>
100-80-1

> <NAME>
M-METHYLSTYRENE

> <preferred_name>
3-Methylstyrene

> <iupac>
1-ethenyl-3-methylbenzene

> <SMILES>
Cc1cc(C=C)ccc1

> <Canonical_QSARr>
Cc1cc(C=C)ccc1

> <InChI_Code_QSARr>
InChI=1S/C9H10/c1-3-9-6-4-5-8(2)7-9/h3-7H,1H2,2H3

> <InChI Key_QSARr>
JZHGRUMIRATHIU-UHFFFAOYSA-N

> <Salt_Solvent>
?

> <WS Temperature>
25

> <WS Reference>
YAWS,CL ET AL. (1990)

> <dsstox_substance_id>
DTXSID9051454

> <LogMolar>
-3.1232

$$$$
101-05-3
  -INDIGO-01081615412D

 21 22  0  0  0  0  0  0  0  0999 V2000
    6.9282    0.8000    0.0000 Cl  0  0  0  0  0  0  0  0  0  0  0  0
    5.5425   -0.0000    0.0000 C   0  0  0  0  0  0  0  0  0  0  0  0
    4.1569    0.8000    0.0000 N   0  0  0  1  0  0  0  0  0  0  0  0
    2.7712   -0.0000    0.0000 C   0  0  0  0  0  0  0  0  0  0  0  0
    1.3857    0.8000    0.0000 N   0  0  0  0  0  0  0  0  0  0  0  0
    0.0001   -0.0000    0.0000 C   0  0  0  0  0  0  0  0  0  0  0  0
   -1.3856    0.8000    0.0000 C   0  0  0  0  0  0  0  0  0  0  0  0
   -1.3856    2.4000    0.0000 Cl  0  0  0  0  0  0  0  0  0  0  0  0
   -2.7713   -0.0000    0.0000 C   0  0  0  0  0  0  0  0  0  0  0  0
   -4.1569    0.8000    0.0000 H   0  0  0  0  0  0  0  0  0  0  0  0
   -2.7713   -1.6000    0.0000 C   0  0  0  0  0  0  0  0  0  0  0  0
   -4.1569   -2.4000    0.0000 H   0  0  0  0  0  0  0  0  0  0  0  0
   -1.3856   -2.4000    0.0000 C   0  0  0  0  0  0  0  0  0  0  0  0
   -1.3856   -4.0000    0.0000 H   0  0  0  0  0  0  0  0  0  0  0  0
    0.0001   -1.6000    0.0000 C   0  0  0  0  0  0  0  0  0  0  0  0
    1.3857   -2.4000    0.0000 H   0  0  0  0  0  0  0  0  0  0  0  0
    1.3856    2.4000    0.0000 H   0  0  0  0  0  0  0  0  0  0  0  0
    2.7712   -1.6000    0.0000 N   0  0  0  1  0  0  0  0  0  0  0  0
    4.1569   -2.4000    0.0000 C   0  0  0  0  0  0  0  0  0  0  0  0
    4.1569   -4.0000    0.0000 Cl  0  0  0  0  0  0  0  0  0  0  0  0
    5.5425   -1.6000    0.0000 N   0  0  0  1  0  0  0  0  0  0  0  0
  1  2  1  0  0  0  0
  2  3  4  0  0  0  0
  3  4  4  0  0  0  0
  4  5  1  0  0  0  0
  5  6  1  0  0  0  0
  6  7  4  0  0  0  0
  7  8  1  0  0  0  0
  7  9  4  0  0  0  0
  9 10  1  0  0  0  0
  9 11  4  0  0  0  0
 11 12  1  0  0  0  0
 11 13  4  0  0  0  0
 13 14  1  0  0  0  0
 13 15  4  0  0  0  0
 15  6  4  0  0  0  0
 15 16  1  0  0  0  0
  5 17  1  0  0  0  0
  4 18  4  0  0  0  0
 18 19  4  0  0  0  0
 19 20  1  0  0  0  0
 19 21  4  0  0  0  0
 21  2  4  0  0  0  0
M  END
> <CAS>
101-05-3

> <NAME>
ANILAZINE

> <preferred_name>
Anilazine

> <iupac>
4,6-dichloro-N-(2-chlorophenyl)-1,3,5-triazin-2-amine

> <SMILES>
Clc1ccccc1Nc1[n]c(Cl)[n]c(Cl)[n]1

> <Canonical_QSARr>
Clc1ccccc1Nc1[n]c(Cl)[n]c(Cl)[n]1

> <InChI_Code_QSARr>
InChI=1S/C9H5Cl3N4/c10-5-3-1-2-4-6(5)13-9-15-7(11)14-8(12)16-9/h1-4H,(H,13,14,15,16)

> <InChI Key_QSARr>
IMHBYKMAHXWHRP-UHFFFAOYSA-N

> <Salt_Solvent>
?

> <WS Temperature>
25

> <WS Reference>
WAUCHOPE,RD ET AL. (1991A)

> <dsstox_substance_id>
DTXSID9020089

> <LogMolar>
-4.5371

$$$$
101-27-9
  -INDIGO-01081615412D

 25 25  0  0  0  0  0  0  0  0999 V2000
    2.7714   -0.0000    0.0000 C   0  0  0  0  0  0  0  0  0  0  0  0
    4.1568    0.8000    0.0000 O   0  0  0  0  0  0  0  0  0  0  0  0
    5.5425   -0.0000    0.0000 C   0  0  0  0  0  0  0  0  0  0  0  0
    6.9282   -0.8000    0.0000 C   0  0  0  0  0  0  0  0  0  0  0  0
    8.3139   -1.6000    0.0000 C   0  0  0  0  0  0  0  0  0  0  0  0
    9.6994   -2.4000    0.0000 C   0  0  0  0  0  0  0  0  0  0  0  0
   11.0851   -3.2000    0.0000 Cl  0  0  0  0  0  0  0  0  0  0  0  0
   11.0851   -1.6000    0.0000 H   0  0  0  0  0  0  0  0  0  0  0  0
    9.6994   -4.0000    0.0000 H   0  0  0  0  0  0  0  0  0  0  0  0
    6.3426    1.3856    0.0000 H   0  0  0  0  0  0  0  0  0  0  0  0
    4.7425   -1.3856    0.0000 H   0  0  0  0  0  0  0  0  0  0  0  0
    2.7714   -1.6000    0.0000 O   0  0  0  0  0  0  0  0  0  0  0  0
    1.3857    0.8000    0.0000 N   0  0  0  0  0  0  0  0  0  0  0  0
   -0.0000   -0.0000    0.0000 C   0  0  0  0  0  0  0  0  0  0  0  0
   -1.3857    0.8000    0.0000 C   0  0  0  0  0  0  0  0  0  0  0  0
   -1.3857    2.4000    0.0000 H   0  0  0  0  0  0  0  0  0  0  0  0
   -2.7712   -0.0000    0.0000 C   0  0  0  0  0  0  0  0  0  0  0  0
   -4.1569    0.8000    0.0000 H   0  0  0  0  0  0  0  0  0  0  0  0
   -2.7712   -1.6000    0.0000 C   0  0  0  0  0  0  0  0  0  0  0  0
   -4.1569   -2.4000    0.0000 H   0  0  0  0  0  0  0  0  0  0  0  0
   -1.3857   -2.4000    0.0000 C   0  0  0  0  0  0  0  0  0  0  0  0
   -1.3857   -4.0000    0.0000 Cl  0  0  0  0  0  0  0  0  0  0  0  0
   -0.0000   -1.6000    0.0000 C   0  0  0  0  0  0  0  0  0  0  0  0
    1.3857   -2.4000    0.0000 H   0  0  0  0  0  0  0  0  0  0  0  0
    1.3857    2.4000    0.0000 H   0  0  0  0  0  0  0  0  0  0  0  0
  1  2  1  0  0  0  0
  2  3  1  0  0  0  0
  3  4  1  0  0  0  0
  4  5  3  0  0  0  0
  5  6  1  0  0  0  0
  6  7  1  0  0  0  0
  6  8  1  0  0  0  0
  6  9  1  0  0  0  0
  3 10  1  0  0  0  0
  3 11  1  0  0  0  0
  1 12  2  0  0  0  0
  1 13  1  0  0  0  0
 13 14  1  0  0  0  0
 14 15  4  0  0  0  0
 15 16  1  0  0  0  0
 15 17  4  0  0  0  0
 17 18  1  0  0  0  0
 17 19  4  0  0  0  0
 19 20  1  0  0  0  0
 19 21  4  0  0  0  0
 21 22  1  0  0  0  0
 21 23  4  0  0  0  0
 23 14  4  0  0  0  0
 23 24  1  0  0  0  0
 13 25  1  0  0  0  0
M  END
> <CAS>
101-27-9

> <NAME>
BARBAN

> <preferred_name>
Barban

> <iupac>
4-chlorobut-2-yn-1-yl (3-chlorophenyl)carbamate

> <SMILES>
O=C(Nc1cc(Cl)ccc1)OCC#CCCl

> <Canonical_QSARr>
O=C(Nc1cc(Cl)ccc1)OCC#CCCl

> <InChI_Code_QSARr>
InChI=1S/C11H9Cl2NO2/c12-6-1-2-7-16-11(15)14-10-5-3-4-9(13)8-10/h3-5,8H,6-7H2,(H,14,15)

> <InChI Key_QSARr>
MCOQHIWZJUDQIC-UHFFFAOYSA-N

> <Salt_Solvent>
?

> <WS Temperature>
25

> <WS Reference>
YALKOWSKY,SH & HE,Y (2003)

> <dsstox_substance_id>
DTXSID3041617

> <LogMolar>
-4.3704

$$$$
101-81-5
  -INDIGO-01081615412D

 25 26  0  0  0  0  0  0  0  0999 V2000
    0.0001   -0.0000    0.0000 C   0  0  0  0  0  0  0  0  0  0  0  0
    1.5999   -0.0000    0.0000 C   0  0  0  0  0  0  0  0  0  0  0  0
    2.3999   -1.3856    0.0000 C   0  0  0  0  0  0  0  0  0  0  0  0
    1.5999   -2.7713    0.0000 H   0  0  0  0  0  0  0  0  0  0  0  0
    4.0000   -1.3856    0.0000 C   0  0  0  0  0  0  0  0  0  0  0  0
    4.8000   -2.7713    0.0000 H   0  0  0  0  0  0  0  0  0  0  0  0
    4.8000    0.0000    0.0000 C   0  0  0  0  0  0  0  0  0  0  0  0
    6.4000    0.0000    0.0000 H   0  0  0  0  0  0  0  0  0  0  0  0
    4.0000    1.3856    0.0000 C   0  0  0  0  0  0  0  0  0  0  0  0
    4.8000    2.7713    0.0000 H   0  0  0  0  0  0  0  0  0  0  0  0
    2.3999    1.3856    0.0000 C   0  0  0  0  0  0  0  0  0  0  0  0
    1.5999    2.7713    0.0000 H   0  0  0  0  0  0  0  0  0  0  0  0
   -1.5999   -0.0000    0.0000 C   0  0  0  0  0  0  0  0  0  0  0  0
   -2.3999    1.3856    0.0000 C   0  0  0  0  0  0  0  0  0  0  0  0
   -1.5999    2.7713    0.0000 H   0  0  0  0  0  0  0  0  0  0  0  0
   -4.0000    1.3856    0.0000 C   0  0  0  0  0  0  0  0  0  0  0  0
   -4.8000    2.7713    0.0000 H   0  0  0  0  0  0  0  0  0  0  0  0
   -4.8000   -0.0000    0.0000 C   0  0  0  0  0  0  0  0  0  0  0  0
   -6.4000   -0.0000    0.0000 H   0  0  0  0  0  0  0  0  0  0  0  0
   -4.0000   -1.3856    0.0000 C   0  0  0  0  0  0  0  0  0  0  0  0
   -4.8000   -2.7713    0.0000 H   0  0  0  0  0  0  0  0  0  0  0  0
   -2.3999   -1.3856    0.0000 C   0  0  0  0  0  0  0  0  0  0  0  0
   -1.5999   -2.7713    0.0000 H   0  0  0  0  0  0  0  0  0  0  0  0
    0.0001   -1.6000    0.0000 H   0  0  0  0  0  0  0  0  0  0  0  0
   -0.0001    1.6000    0.0000 H   0  0  0  0  0  0  0  0  0  0  0  0
  1  2  1  0  0  0  0
  2  3  4  0  0  0  0
  3  4  1  0  0  0  0
  3  5  4  0  0  0  0
  5  6  1  0  0  0  0
  5  7  4  0  0  0  0
  7  8  1  0  0  0  0
  7  9  4  0  0  0  0
  9 10  1  0  0  0  0
  9 11  4  0  0  0  0
 11  2  4  0  0  0  0
 11 12  1  0  0  0  0
  1 13  1  0  0  0  0
 13 14  4  0  0  0  0
 14 15  1  0  0  0  0
 14 16  4  0  0  0  0
 16 17  1  0  0  0  0
 16 18  4  0  0  0  0
 18 19  1  0  0  0  0
 18 20  4  0  0  0  0
 20 21  1  0  0  0  0
 20 22  4  0  0  0  0
 22 13  4  0  0  0  0
 22 23  1  0  0  0  0
  1 24  1  0  0  0  0
  1 25  1  0  0  0  0
M  END
> <CAS>
101-81-5

> <NAME>
BENZENE, 1,1'-METHYLENEBIS-

> <preferred_name>
Diphenylmethane

> <iupac>
1,1'-methanediyldibenzene

> <SMILES>
C(c1ccccc1)c1ccccc1

> <Canonical_QSARr>
C(c1ccccc1)c1ccccc1

> <InChI_Code_QSARr>
InChI=1S/C13H12/c1-3-7-12(8-4-1)11-13-9-5-2-6-10-13/h1-10H,11H2

> <InChI Key_QSARr>
CZZYITDELCSZES-UHFFFAOYSA-N

> <Salt_Solvent>
?

> <WS Temperature>
25

> <WS Reference>
YALKOWSKY,SH & DANNENFELSER,RM (1992)

> <dsstox_substance_id>
DTXSID1041891

> <LogMolar>
-4.0767

$$$$
102-25-0
  -INDIGO-01081615412D

 30 30  0  0  0  0  0  0  0  0999 V2000
   -0.0001    1.6000    0.0000 C   0  0  0  0  0  0  0  0  0  0  0  0
   -1.3857    2.4000    0.0000 C   0  0  0  0  0  0  0  0  0  0  0  0
   -1.3857    3.9999    0.0000 C   0  0  0  0  0  0  0  0  0  0  0  0
   -1.3857    5.6000    0.0000 C   0  0  0  0  0  0  0  0  0  0  0  0
   -1.3857    7.2000    0.0000 H   0  0  0  0  0  0  0  0  0  0  0  0
   -2.7712    6.4000    0.0000 H   0  0  0  0  0  0  0  0  0  0  0  0
   -0.0001    6.4000    0.0000 H   0  0  0  0  0  0  0  0  0  0  0  0
   -2.9857    3.9999    0.0000 H   0  0  0  0  0  0  0  0  0  0  0  0
    0.2144    3.9999    0.0000 H   0  0  0  0  0  0  0  0  0  0  0  0
   -2.7712    1.6000    0.0000 C   0  0  0  0  0  0  0  0  0  0  0  0
   -4.1569    2.4000    0.0000 H   0  0  0  0  0  0  0  0  0  0  0  0
   -2.7712    0.0001    0.0000 C   0  0  0  0  0  0  0  0  0  0  0  0
   -4.1569   -0.8001    0.0000 C   0  0  0  0  0  0  0  0  0  0  0  0
   -5.5425   -1.6000    0.0000 C   0  0  0  0  0  0  0  0  0  0  0  0
   -6.9282   -2.4000    0.0000 H   0  0  0  0  0  0  0  0  0  0  0  0
   -5.5425   -3.2000    0.0000 H   0  0  0  0  0  0  0  0  0  0  0  0
   -6.9282   -0.8001    0.0000 H   0  0  0  0  0  0  0  0  0  0  0  0
   -3.3570   -2.1856    0.0000 H   0  0  0  0  0  0  0  0  0  0  0  0
   -4.9569    0.5856    0.0000 H   0  0  0  0  0  0  0  0  0  0  0  0
   -1.3857   -0.8001    0.0000 C   0  0  0  0  0  0  0  0  0  0  0  0
   -1.3857   -2.4000    0.0000 H   0  0  0  0  0  0  0  0  0  0  0  0
   -0.0001    0.0001    0.0000 C   0  0  0  0  0  0  0  0  0  0  0  0
    1.3856   -0.8001    0.0000 C   0  0  0  0  0  0  0  0  0  0  0  0
    2.7713   -1.6000    0.0000 C   0  0  0  0  0  0  0  0  0  0  0  0
    4.1569   -2.4000    0.0000 H   0  0  0  0  0  0  0  0  0  0  0  0
    4.1569   -0.8001    0.0000 H   0  0  0  0  0  0  0  0  0  0  0  0
    2.7713   -3.2000    0.0000 H   0  0  0  0  0  0  0  0  0  0  0  0
    0.5857   -2.1856    0.0000 H   0  0  0  0  0  0  0  0  0  0  0  0
    2.1857    0.5856    0.0000 H   0  0  0  0  0  0  0  0  0  0  0  0
    1.3856    2.4000    0.0000 H   0  0  0  0  0  0  0  0  0  0  0  0
  1  2  4  0  0  0  0
  2  3  1  0  0  0  0
  3  4  1  0  0  0  0
  4  5  1  0  0  0  0
  4  6  1  0  0  0  0
  4  7  1  0  0  0  0
  3  8  1  0  0  0  0
  3  9  1  0  0  0  0
  2 10  4  0  0  0  0
 10 11  1  0  0  0  0
 10 12  4  0  0  0  0
 12 13  1  0  0  0  0
 13 14  1  0  0  0  0
 14 15  1  0  0  0  0
 14 16  1  0  0  0  0
 14 17  1  0  0  0  0
 13 18  1  0  0  0  0
 13 19  1  0  0  0  0
 12 20  4  0  0  0  0
 20 21  1  0  0  0  0
 20 22  4  0  0  0  0
 22  1  4  0  0  0  0
 22 23  1  0  0  0  0
 23 24  1  0  0  0  0
 24 25  1  0  0  0  0
 24 26  1  0  0  0  0
 24 27  1  0  0  0  0
 23 28  1  0  0  0  0
 23 29  1  0  0  0  0
  1 30  1  0  0  0  0
M  END
> <CAS>
102-25-0

> <NAME>
1,3,5-TRIETHYLBENZENE

> <preferred_name>
Benzene, triethyl-

> <iupac>
1,3,5-triethylbenzene

> <SMILES>
CCc1cc(CC)cc(CC)c1

> <Canonical_QSARr>
CCc1cc(CC)cc(CC)c1

> <InChI_Code_QSARr>
InChI=1S/C12H18/c1-4-10-7-11(5-2)9-12(6-3)8-10/h7-9H,4-6H2,1-3H3

> <InChI Key_QSARr>
WJYMPXJVHNDZHD-UHFFFAOYSA-N

> <Salt_Solvent>
?

> <WS Temperature>
20

> <WS Reference>
MACINTYRE,WG & DEFUR,PO (1985)

> <dsstox_substance_id>
DTXSID9027867

> <LogMolar>
-7.0641

$$$$
102-69-2
  -INDIGO-01081615412D

 31 30  0  0  0  0  0  0  0  0999 V2000
    0.0001   -4.8000    0.0000 C   0  0  0  0  0  0  0  0  0  0  0  0
    0.0001   -3.1999    0.0000 C   0  0  0  0  0  0  0  0  0  0  0  0
    0.0001   -1.6000    0.0000 C   0  0  0  0  0  0  0  0  0  0  0  0
    0.0001   -0.0000    0.0000 N   0  0  0  0  0  0  0  0  0  0  0  0
    1.3856    0.7999    0.0000 C   0  0  0  0  0  0  0  0  0  0  0  0
    2.7712    1.6001    0.0000 C   0  0  0  0  0  0  0  0  0  0  0  0
    4.1569    2.4000    0.0000 C   0  0  0  0  0  0  0  0  0  0  0  0
    5.5426    3.2000    0.0000 H   0  0  0  0  0  0  0  0  0  0  0  0
    4.1569    4.0000    0.0000 H   0  0  0  0  0  0  0  0  0  0  0  0
    5.5426    1.6001    0.0000 H   0  0  0  0  0  0  0  0  0  0  0  0
    1.9713    2.9856    0.0000 H   0  0  0  0  0  0  0  0  0  0  0  0
    3.5713    0.2144    0.0000 H   0  0  0  0  0  0  0  0  0  0  0  0
    0.5857    2.1857    0.0000 H   0  0  0  0  0  0  0  0  0  0  0  0
    2.1856   -0.5856    0.0000 H   0  0  0  0  0  0  0  0  0  0  0  0
   -1.3856    0.7999    0.0000 C   0  0  0  0  0  0  0  0  0  0  0  0
   -2.7712    1.6001    0.0000 C   0  0  0  0  0  0  0  0  0  0  0  0
   -4.1569    2.4000    0.0000 C   0  0  0  0  0  0  0  0  0  0  0  0
   -5.5426    3.2000    0.0000 H   0  0  0  0  0  0  0  0  0  0  0  0
   -4.1569    4.0000    0.0000 H   0  0  0  0  0  0  0  0  0  0  0  0
   -5.5426    1.6001    0.0000 H   0  0  0  0  0  0  0  0  0  0  0  0
   -3.5713    0.2144    0.0000 H   0  0  0  0  0  0  0  0  0  0  0  0
   -1.9713    2.9856    0.0000 H   0  0  0  0  0  0  0  0  0  0  0  0
   -0.5857    2.1857    0.0000 H   0  0  0  0  0  0  0  0  0  0  0  0
   -2.1856   -0.5856    0.0000 H   0  0  0  0  0  0  0  0  0  0  0  0
    1.6001   -1.6000    0.0000 H   0  0  0  0  0  0  0  0  0  0  0  0
   -1.6001   -1.6000    0.0000 H   0  0  0  0  0  0  0  0  0  0  0  0
    1.6001   -3.1999    0.0000 H   0  0  0  0  0  0  0  0  0  0  0  0
   -1.6001   -3.1999    0.0000 H   0  0  0  0  0  0  0  0  0  0  0  0
    0.0001   -6.4000    0.0000 H   0  0  0  0  0  0  0  0  0  0  0  0
    1.3856   -5.6000    0.0000 H   0  0  0  0  0  0  0  0  0  0  0  0
   -1.3856   -5.6000    0.0000 H   0  0  0  0  0  0  0  0  0  0  0  0
  1  2  1  0  0  0  0
  2  3  1  0  0  0  0
  3  4  1  0  0  0  0
  4  5  1  0  0  0  0
  5  6  1  0  0  0  0
  6  7  1  0  0  0  0
  7  8  1  0  0  0  0
  7  9  1  0  0  0  0
  7 10  1  0  0  0  0
  6 11  1  0  0  0  0
  6 12  1  0  0  0  0
  5 13  1  0  0  0  0
  5 14  1  0  0  0  0
  4 15  1  0  0  0  0
 15 16  1  0  0  0  0
 16 17  1  0  0  0  0
 17 18  1  0  0  0  0
 17 19  1  0  0  0  0
 17 20  1  0  0  0  0
 16 21  1  0  0  0  0
 16 22  1  0  0  0  0
 15 23  1  0  0  0  0
 15 24  1  0  0  0  0
  3 25  1  0  0  0  0
  3 26  1  0  0  0  0
  2 27  1  0  0  0  0
  2 28  1  0  0  0  0
  1 29  1  0  0  0  0
  1 30  1  0  0  0  0
  1 31  1  0  0  0  0
M  END
> <CAS>
102-69-2

> <NAME>
TRIPROPYLAMINE

> <preferred_name>
Tripropylamine

> <iupac>
N,N-dipropylpropan-1-amine

> <SMILES>
CCCN(CCC)CCC

> <Canonical_QSARr>
CCCN(CCC)CCC

> <InChI_Code_QSARr>
InChI=1S/C9H21N/c1-4-7-10(8-5-2)9-6-3/h4-9H2,1-3H3

> <InChI Key_QSARr>
YFTHZRPMJXBUME-UHFFFAOYSA-N

> <Salt_Solvent>
?

> <WS Temperature>
25

> <WS Reference>
YALKOWSKY,SH & DANNENFELSER,RM (1992)

> <dsstox_substance_id>
DTXSID9021849

> <LogMolar>
-2.2823

$$$$
102-81-8
  -INDIGO-01081615412D

 35 34  0  0  0  0  0  0  0  0999 V2000
    0.0001   -4.8000    0.0000 O   0  0  0  0  0  0  0  0  0  0  0  0
    0.0001   -3.2001    0.0000 C   0  0  0  0  0  0  0  0  0  0  0  0
    0.0001   -1.6000    0.0000 C   0  0  0  0  0  0  0  0  0  0  0  0
    0.0001   -0.0000    0.0000 N   0  0  0  0  0  0  0  0  0  0  0  0
   -1.3856    0.8000    0.0000 C   0  0  0  0  0  0  0  0  0  0  0  0
   -2.7712    1.5999    0.0000 C   0  0  0  0  0  0  0  0  0  0  0  0
   -4.1569    2.4001    0.0000 C   0  0  0  0  0  0  0  0  0  0  0  0
   -5.5427    3.2000    0.0000 C   0  0  0  0  0  0  0  0  0  0  0  0
   -6.9282    4.0000    0.0000 H   0  0  0  0  0  0  0  0  0  0  0  0
   -6.9282    2.4001    0.0000 H   0  0  0  0  0  0  0  0  0  0  0  0
   -5.5427    4.8000    0.0000 H   0  0  0  0  0  0  0  0  0  0  0  0
   -4.9570    1.0144    0.0000 H   0  0  0  0  0  0  0  0  0  0  0  0
   -3.3569    3.7856    0.0000 H   0  0  0  0  0  0  0  0  0  0  0  0
   -3.5712    0.2144    0.0000 H   0  0  0  0  0  0  0  0  0  0  0  0
   -1.9713    2.9857    0.0000 H   0  0  0  0  0  0  0  0  0  0  0  0
   -2.1857   -0.5856    0.0000 H   0  0  0  0  0  0  0  0  0  0  0  0
   -0.5856    2.1857    0.0000 H   0  0  0  0  0  0  0  0  0  0  0  0
    1.3856    0.8000    0.0000 C   0  0  0  0  0  0  0  0  0  0  0  0
    2.7714    1.5999    0.0000 C   0  0  0  0  0  0  0  0  0  0  0  0
    4.1569    2.4001    0.0000 C   0  0  0  0  0  0  0  0  0  0  0  0
    5.5427    3.2000    0.0000 C   0  0  0  0  0  0  0  0  0  0  0  0
    6.9282    4.0000    0.0000 H   0  0  0  0  0  0  0  0  0  0  0  0
    6.9282    2.4001    0.0000 H   0  0  0  0  0  0  0  0  0  0  0  0
    5.5427    4.8000    0.0000 H   0  0  0  0  0  0  0  0  0  0  0  0
    4.9570    1.0144    0.0000 H   0  0  0  0  0  0  0  0  0  0  0  0
    3.3569    3.7856    0.0000 H   0  0  0  0  0  0  0  0  0  0  0  0
    3.5712    0.2144    0.0000 H   0  0  0  0  0  0  0  0  0  0  0  0
    1.9713    2.9857    0.0000 H   0  0  0  0  0  0  0  0  0  0  0  0
    2.1857   -0.5856    0.0000 H   0  0  0  0  0  0  0  0  0  0  0  0
    0.5856    2.1857    0.0000 H   0  0  0  0  0  0  0  0  0  0  0  0
   -1.6000   -1.6000    0.0000 H   0  0  0  0  0  0  0  0  0  0  0  0
    1.6000   -1.6000    0.0000 H   0  0  0  0  0  0  0  0  0  0  0  0
   -1.6000   -3.2001    0.0000 H   0  0  0  0  0  0  0  0  0  0  0  0
    1.6000   -3.2001    0.0000 H   0  0  0  0  0  0  0  0  0  0  0  0
   -1.3856   -5.6000    0.0000 H   0  0  0  0  0  0  0  0  0  0  0  0
  1  2  1  0  0  0  0
  2  3  1  0  0  0  0
  3  4  1  0  0  0  0
  4  5  1  0  0  0  0
  5  6  1  0  0  0  0
  6  7  1  0  0  0  0
  7  8  1  0  0  0  0
  8  9  1  0  0  0  0
  8 10  1  0  0  0  0
  8 11  1  0  0  0  0
  7 12  1  0  0  0  0
  7 13  1  0  0  0  0
  6 14  1  0  0  0  0
  6 15  1  0  0  0  0
  5 16  1  0  0  0  0
  5 17  1  0  0  0  0
  4 18  1  0  0  0  0
 18 19  1  0  0  0  0
 19 20  1  0  0  0  0
 20 21  1  0  0  0  0
 21 22  1  0  0  0  0
 21 23  1  0  0  0  0
 21 24  1  0  0  0  0
 20 25  1  0  0  0  0
 20 26  1  0  0  0  0
 19 27  1  0  0  0  0
 19 28  1  0  0  0  0
 18 29  1  0  0  0  0
 18 30  1  0  0  0  0
  3 31  1  0  0  0  0
  3 32  1  0  0  0  0
  2 33  1  0  0  0  0
  2 34  1  0  0  0  0
  1 35  1  0  0  0  0
M  END
> <CAS>
102-81-8

> <NAME>
2-Dibutylaminoethanol

> <preferred_name>
2-(Dibutylamino)ethanol

> <iupac>
2-(dibutylamino)ethanol

> <SMILES>
CCCCN(CCO)CCCC

> <Canonical_QSARr>
CCCCN(CCO)CCCC

> <InChI_Code_QSARr>
InChI=1S/C10H23NO/c1-3-5-7-11(9-10-12)8-6-4-2/h12H,3-10H2,1-2H3

> <InChI Key_QSARr>
IWSZDQRGNFLMJS-UHFFFAOYSA-N

> <Salt_Solvent>
?

> <WS Temperature>
25

> <WS Reference>
KIRK-OTHMER; 4th ed, 2:3 (1992)

> <dsstox_substance_id>
DTXSID2024953

> <LogMolar>
-1.6367

$$$$
103-29-7
  -INDIGO-01081615412D

 28 29  0  0  0  0  0  0  0  0999 V2000
   -0.0001   -0.0000    0.0000 C   0  0  0  0  0  0  0  0  0  0  0  0
    1.6000   -0.0000    0.0000 C   0  0  0  0  0  0  0  0  0  0  0  0
    2.4000   -1.3856    0.0000 C   0  0  0  0  0  0  0  0  0  0  0  0
    1.6000   -2.7713    0.0000 H   0  0  0  0  0  0  0  0  0  0  0  0
    4.0001   -1.3856    0.0000 C   0  0  0  0  0  0  0  0  0  0  0  0
    4.7999   -2.7713    0.0000 H   0  0  0  0  0  0  0  0  0  0  0  0
    4.7999    0.0000    0.0000 C   0  0  0  0  0  0  0  0  0  0  0  0
    6.4000    0.0000    0.0000 H   0  0  0  0  0  0  0  0  0  0  0  0
    4.0001    1.3856    0.0000 C   0  0  0  0  0  0  0  0  0  0  0  0
    4.7999    2.7713    0.0000 H   0  0  0  0  0  0  0  0  0  0  0  0
    2.4000    1.3856    0.0000 C   0  0  0  0  0  0  0  0  0  0  0  0
    1.6000    2.7713    0.0000 H   0  0  0  0  0  0  0  0  0  0  0  0
   -1.5999   -0.0000    0.0000 C   0  0  0  0  0  0  0  0  0  0  0  0
   -3.2000   -0.0000    0.0000 C   0  0  0  0  0  0  0  0  0  0  0  0
   -4.0000    1.3856    0.0000 C   0  0  0  0  0  0  0  0  0  0  0  0
   -3.2000    2.7713    0.0000 H   0  0  0  0  0  0  0  0  0  0  0  0
   -5.6001    1.3856    0.0000 C   0  0  0  0  0  0  0  0  0  0  0  0
   -6.3999    2.7713    0.0000 H   0  0  0  0  0  0  0  0  0  0  0  0
   -6.3999   -0.0000    0.0000 C   0  0  0  0  0  0  0  0  0  0  0  0
   -8.0000   -0.0000    0.0000 H   0  0  0  0  0  0  0  0  0  0  0  0
   -5.5999   -1.3856    0.0000 C   0  0  0  0  0  0  0  0  0  0  0  0
   -6.3999   -2.7713    0.0000 H   0  0  0  0  0  0  0  0  0  0  0  0
   -4.0000   -1.3856    0.0000 C   0  0  0  0  0  0  0  0  0  0  0  0
   -3.2000   -2.7713    0.0000 H   0  0  0  0  0  0  0  0  0  0  0  0
   -1.5999   -1.6000    0.0000 H   0  0  0  0  0  0  0  0  0  0  0  0
   -1.5999    1.6000    0.0000 H   0  0  0  0  0  0  0  0  0  0  0  0
   -0.0001   -1.6000    0.0000 H   0  0  0  0  0  0  0  0  0  0  0  0
   -0.0001    1.6000    0.0000 H   0  0  0  0  0  0  0  0  0  0  0  0
  1  2  1  0  0  0  0
  2  3  4  0  0  0  0
  3  4  1  0  0  0  0
  3  5  4  0  0  0  0
  5  6  1  0  0  0  0
  5  7  4  0  0  0  0
  7  8  1  0  0  0  0
  7  9  4  0  0  0  0
  9 10  1  0  0  0  0
  9 11  4  0  0  0  0
 11  2  4  0  0  0  0
 11 12  1  0  0  0  0
  1 13  1  0  0  0  0
 13 14  1  0  0  0  0
 14 15  4  0  0  0  0
 15 16  1  0  0  0  0
 15 17  4  0  0  0  0
 17 18  1  0  0  0  0
 17 19  4  0  0  0  0
 19 20  1  0  0  0  0
 19 21  4  0  0  0  0
 21 22  1  0  0  0  0
 21 23  4  0  0  0  0
 23 14  4  0  0  0  0
 23 24  1  0  0  0  0
 13 25  1  0  0  0  0
 13 26  1  0  0  0  0
  1 27  1  0  0  0  0
  1 28  1  0  0  0  0
M  END
> <CAS>
103-29-7

> <NAME>
BIBENZYL

> <preferred_name>
Bibenzyl

> <iupac>
1,1'-ethane-1,2-diyldibenzene

> <SMILES>
C(Cc1ccccc1)c1ccccc1

> <Canonical_QSARr>
C(Cc1ccccc1)c1ccccc1

> <InChI_Code_QSARr>
InChI=1S/C14H14/c1-3-7-13(8-4-1)11-12-14-9-5-2-6-10-14/h1-10H,11-12H2

> <InChI Key_QSARr>
QWUWMCYKGHVNAV-UHFFFAOYSA-N

> <Salt_Solvent>
?

> <WS Temperature>
25

> <WS Reference>
YALKOWSKY,SH & DANNENFELSER,RM (1992)

> <dsstox_substance_id>
DTXSID8041668

> <LogMolar>
-4.6272

$$$$
103-69-5
  -INDIGO-01081615412D

 20 20  0  0  0  0  0  0  0  0999 V2000
   -1.3856    0.8000    0.0000 N   0  0  0  0  0  0  0  0  0  0  0  0
    0.0000   -0.0000    0.0000 C   0  0  0  0  0  0  0  0  0  0  0  0
    1.3857   -0.8000    0.0000 C   0  0  0  0  0  0  0  0  0  0  0  0
    2.7713   -1.6000    0.0000 H   0  0  0  0  0  0  0  0  0  0  0  0
    2.7713   -0.0000    0.0000 H   0  0  0  0  0  0  0  0  0  0  0  0
    1.3857   -2.4000    0.0000 H   0  0  0  0  0  0  0  0  0  0  0  0
    0.8000    1.3856    0.0000 H   0  0  0  0  0  0  0  0  0  0  0  0
   -0.8001   -1.3856    0.0000 H   0  0  0  0  0  0  0  0  0  0  0  0
   -2.7713   -0.0000    0.0000 C   0  0  0  0  0  0  0  0  0  0  0  0
   -4.1570    0.8000    0.0000 C   0  0  0  0  0  0  0  0  0  0  0  0
   -4.1570    2.4000    0.0000 H   0  0  0  0  0  0  0  0  0  0  0  0
   -5.5426   -0.0000    0.0000 C   0  0  0  0  0  0  0  0  0  0  0  0
   -6.9282    0.8000    0.0000 H   0  0  0  0  0  0  0  0  0  0  0  0
   -5.5426   -1.6000    0.0000 C   0  0  0  0  0  0  0  0  0  0  0  0
   -6.9282   -2.4000    0.0000 H   0  0  0  0  0  0  0  0  0  0  0  0
   -4.1570   -2.4000    0.0000 C   0  0  0  0  0  0  0  0  0  0  0  0
   -4.1570   -4.0000    0.0000 H   0  0  0  0  0  0  0  0  0  0  0  0
   -2.7713   -1.6000    0.0000 C   0  0  0  0  0  0  0  0  0  0  0  0
   -1.3856   -2.4000    0.0000 H   0  0  0  0  0  0  0  0  0  0  0  0
   -1.3856    2.4000    0.0000 H   0  0  0  0  0  0  0  0  0  0  0  0
  1  2  1  0  0  0  0
  2  3  1  0  0  0  0
  3  4  1  0  0  0  0
  3  5  1  0  0  0  0
  3  6  1  0  0  0  0
  2  7  1  0  0  0  0
  2  8  1  0  0  0  0
  1  9  1  0  0  0  0
  9 10  4  0  0  0  0
 10 11  1  0  0  0  0
 10 12  4  0  0  0  0
 12 13  1  0  0  0  0
 12 14  4  0  0  0  0
 14 15  1  0  0  0  0
 14 16  4  0  0  0  0
 16 17  1  0  0  0  0
 16 18  4  0  0  0  0
 18  9  4  0  0  0  0
 18 19  1  0  0  0  0
  1 20  1  0  0  0  0
M  END
> <CAS>
103-69-5

> <NAME>
N-ETHYLANILINE

> <preferred_name>
N-Ethylaniline

> <iupac>
N-ethylaniline

> <SMILES>
CCNc1ccccc1

> <Canonical_QSARr>
CCNc1ccccc1

> <InChI_Code_QSARr>
InChI=1S/C8H11N/c1-2-9-8-6-4-3-5-7-8/h3-7,9H,2H2,1H3

> <InChI Key_QSARr>
OJGMBLNIHDZDGS-UHFFFAOYSA-N

> <Salt_Solvent>
?

> <WS Temperature>
25

> <WS Reference>
KUHNE,R ET AL. (1995)

> <dsstox_substance_id>
DTXSID1025271

> <LogMolar>
-1.7007

$$$$
103-83-3
  -INDIGO-01081615412D

 23 23  0  0  0  0  0  0  0  0999 V2000
    2.4001    1.3856    0.0000 C   0  0  0  0  0  0  0  0  0  0  0  0
    1.6001    0.0000    0.0000 N   0  0  0  0  0  0  0  0  0  0  0  0
   -0.0000    0.0000    0.0000 C   0  0  0  0  0  0  0  0  0  0  0  0
   -1.6000   -0.0000    0.0000 C   0  0  0  0  0  0  0  0  0  0  0  0
   -2.4000    1.3856    0.0000 C   0  0  0  0  0  0  0  0  0  0  0  0
   -1.6000    2.7713    0.0000 H   0  0  0  0  0  0  0  0  0  0  0  0
   -4.0001    1.3856    0.0000 C   0  0  0  0  0  0  0  0  0  0  0  0
   -4.8000    2.7713    0.0000 H   0  0  0  0  0  0  0  0  0  0  0  0
   -4.8000   -0.0000    0.0000 C   0  0  0  0  0  0  0  0  0  0  0  0
   -6.4000   -0.0000    0.0000 H   0  0  0  0  0  0  0  0  0  0  0  0
   -4.0001   -1.3856    0.0000 C   0  0  0  0  0  0  0  0  0  0  0  0
   -4.8000   -2.7713    0.0000 H   0  0  0  0  0  0  0  0  0  0  0  0
   -2.4000   -1.3856    0.0000 C   0  0  0  0  0  0  0  0  0  0  0  0
   -1.6000   -2.7713    0.0000 H   0  0  0  0  0  0  0  0  0  0  0  0
   -0.0000   -1.6000    0.0000 H   0  0  0  0  0  0  0  0  0  0  0  0
   -0.0000    1.6000    0.0000 H   0  0  0  0  0  0  0  0  0  0  0  0
    2.4001   -1.3856    0.0000 C   0  0  0  0  0  0  0  0  0  0  0  0
    3.2000   -2.7713    0.0000 H   0  0  0  0  0  0  0  0  0  0  0  0
    4.0000   -1.3856    0.0000 H   0  0  0  0  0  0  0  0  0  0  0  0
    1.6001   -2.7713    0.0000 H   0  0  0  0  0  0  0  0  0  0  0  0
    3.2000    2.7713    0.0000 H   0  0  0  0  0  0  0  0  0  0  0  0
    4.0000    1.3856    0.0000 H   0  0  0  0  0  0  0  0  0  0  0  0
    1.6001    2.7713    0.0000 H   0  0  0  0  0  0  0  0  0  0  0  0
  1  2  1  0  0  0  0
  2  3  1  0  0  0  0
  3  4  1  0  0  0  0
  4  5  4  0  0  0  0
  5  6  1  0  0  0  0
  5  7  4  0  0  0  0
  7  8  1  0  0  0  0
  7  9  4  0  0  0  0
  9 10  1  0  0  0  0
  9 11  4  0  0  0  0
 11 12  1  0  0  0  0
 11 13  4  0  0  0  0
 13  4  4  0  0  0  0
 13 14  1  0  0  0  0
  3 15  1  0  0  0  0
  3 16  1  0  0  0  0
  2 17  1  0  0  0  0
 17 18  1  0  0  0  0
 17 19  1  0  0  0  0
 17 20  1  0  0  0  0
  1 21  1  0  0  0  0
  1 22  1  0  0  0  0
  1 23  1  0  0  0  0
M  END
> <CAS>
103-83-3

> <NAME>
N,N-DIMETHYLBENZYLAMINE

> <preferred_name>
N,N-Dimethylbenzylamine

> <iupac>
N,N-dimethyl-1-phenylmethanamine

> <SMILES>
CN(C)Cc1ccccc1

> <Canonical_QSARr>
CN(C)Cc1ccccc1

> <InChI_Code_QSARr>
InChI=1S/C9H13N/c1-10(2)8-9-6-4-3-5-7-9/h3-7H,8H2,1-2H3

> <InChI Key_QSARr>
XXBDWLFCJWSEKW-UHFFFAOYSA-N

> <Salt_Solvent>
?

> <WS Temperature>
25

> <WS Reference>
CHEMICALS INSPECTION AND TESTING INSTITU (1992)

> <dsstox_substance_id>
DTXSID8021854

> <LogMolar>
-1.0518

$$$$
103-90-2
  -INDIGO-01081615412D

 20 20  0  0  0  0  0  0  0  0999 V2000
    2.4000   -1.3856    0.0000 C   0  0  0  0  0  0  0  0  0  0  0  0
    4.0000   -1.3856    0.0000 C   0  0  0  0  0  0  0  0  0  0  0  0
    5.6000   -1.3856    0.0000 H   0  0  0  0  0  0  0  0  0  0  0  0
    4.8000   -2.7713    0.0000 H   0  0  0  0  0  0  0  0  0  0  0  0
    4.8000    0.0000    0.0000 H   0  0  0  0  0  0  0  0  0  0  0  0
    1.6001   -2.7713    0.0000 O   0  0  0  0  0  0  0  0  0  0  0  0
    1.6001    0.0000    0.0000 N   0  0  0  0  0  0  0  0  0  0  0  0
   -0.0001   -0.0000    0.0000 C   0  0  0  0  0  0  0  0  0  0  0  0
   -0.8001    1.3856    0.0000 C   0  0  0  0  0  0  0  0  0  0  0  0
   -0.0001    2.7713    0.0000 H   0  0  0  0  0  0  0  0  0  0  0  0
   -2.4000    1.3856    0.0000 C   0  0  0  0  0  0  0  0  0  0  0  0
   -3.2000    2.7713    0.0000 H   0  0  0  0  0  0  0  0  0  0  0  0
   -3.2000   -0.0000    0.0000 C   0  0  0  0  0  0  0  0  0  0  0  0
   -4.8000   -0.0000    0.0000 O   0  0  0  0  0  0  0  0  0  0  0  0
   -5.6000    1.3856    0.0000 H   0  0  0  0  0  0  0  0  0  0  0  0
   -2.4000   -1.3856    0.0000 C   0  0  0  0  0  0  0  0  0  0  0  0
   -3.2000   -2.7713    0.0000 H   0  0  0  0  0  0  0  0  0  0  0  0
   -0.8001   -1.3856    0.0000 C   0  0  0  0  0  0  0  0  0  0  0  0
    0.0001   -2.7713    0.0000 H   0  0  0  0  0  0  0  0  0  0  0  0
    2.4000    1.3856    0.0000 H   0  0  0  0  0  0  0  0  0  0  0  0
  1  2  1  0  0  0  0
  2  3  1  0  0  0  0
  2  4  1  0  0  0  0
  2  5  1  0  0  0  0
  1  6  2  0  0  0  0
  1  7  1  0  0  0  0
  7  8  1  0  0  0  0
  8  9  4  0  0  0  0
  9 10  1  0  0  0  0
  9 11  4  0  0  0  0
 11 12  1  0  0  0  0
 11 13  4  0  0  0  0
 13 14  1  0  0  0  0
 14 15  1  0  0  0  0
 13 16  4  0  0  0  0
 16 17  1  0  0  0  0
 16 18  4  0  0  0  0
 18  8  4  0  0  0  0
 18 19  1  0  0  0  0
  7 20  1  0  0  0  0
M  END
> <CAS>
103-90-2

> <NAME>
ACETAMIDE, N-(4-HYDROXYPHENYL)

> <preferred_name>
Acetaminophen

> <iupac>
N-(4-hydroxyphenyl)acetamide

> <SMILES>
CC(=O)Nc1ccc(O)cc1

> <Canonical_QSARr>
CC(=O)Nc1ccc(O)cc1

> <InChI_Code_QSARr>
InChI=1S/C8H9NO2/c1-6(10)9-7-2-4-8(11)5-3-7/h2-5,11H,1H3,(H,9,10)

> <InChI Key_QSARr>
RZVAJINKPMORJF-UHFFFAOYSA-N

> <Salt_Solvent>
?

> <WS Temperature>
25

> <WS Reference>
YALKOWSKY,SH & HE,Y (2003)

> <dsstox_substance_id>
DTXSID2020006

> <LogMolar>
-1.0333

$$$$
104-46-1
  -INDIGO-01081615412D

 23 23  0  0  0  0  0  0  0  0999 V2000
    1.5999    0.0000    0.0000 C   0  0  0  0  0  0  0  0  0  0  0  0
    2.4000   -1.3856    0.0000 C   0  0  0  0  0  0  0  0  0  0  0  0
    4.0000   -1.3856    0.0000 C   0  0  0  0  0  0  0  0  0  0  0  0
    5.6000   -1.3856    0.0000 H   0  0  0  0  0  0  0  0  0  0  0  0
    4.8000   -2.7713    0.0000 H   0  0  0  0  0  0  0  0  0  0  0  0
    4.8000    0.0000    0.0000 H   0  0  0  0  0  0  0  0  0  0  0  0
    1.5999   -2.7713    0.0000 H   0  0  0  0  0  0  0  0  0  0  0  0
   -0.0001   -0.0000    0.0000 C   0  0  0  0  0  0  0  0  0  0  0  0
   -0.8001    1.3856    0.0000 C   0  0  0  0  0  0  0  0  0  0  0  0
   -0.0001    2.7713    0.0000 H   0  0  0  0  0  0  0  0  0  0  0  0
   -2.3999    1.3856    0.0000 C   0  0  0  0  0  0  0  0  0  0  0  0
   -3.1999    2.7713    0.0000 H   0  0  0  0  0  0  0  0  0  0  0  0
   -3.1999   -0.0000    0.0000 C   0  0  0  0  0  0  0  0  0  0  0  0
   -4.8000   -0.0000    0.0000 O   0  0  0  0  0  0  0  0  0  0  0  0
   -5.6000    1.3856    0.0000 C   0  0  0  0  0  0  0  0  0  0  0  0
   -7.2000    1.3856    0.0000 H   0  0  0  0  0  0  0  0  0  0  0  0
   -6.4000    2.7713    0.0000 H   0  0  0  0  0  0  0  0  0  0  0  0
   -6.4000   -0.0000    0.0000 H   0  0  0  0  0  0  0  0  0  0  0  0
   -2.3999   -1.3856    0.0000 C   0  0  0  0  0  0  0  0  0  0  0  0
   -3.1999   -2.7713    0.0000 H   0  0  0  0  0  0  0  0  0  0  0  0
   -0.8001   -1.3856    0.0000 C   0  0  0  0  0  0  0  0  0  0  0  0
   -0.0001   -2.7713    0.0000 H   0  0  0  0  0  0  0  0  0  0  0  0
    2.4000    1.3856    0.0000 H   0  0  0  0  0  0  0  0  0  0  0  0
  1  2  2  0  0  0  0
  2  3  1  0  0  0  0
  3  4  1  0  0  0  0
  3  5  1  0  0  0  0
  3  6  1  0  0  0  0
  2  7  1  0  0  0  0
  1  8  1  0  0  0  0
  8  9  4  0  0  0  0
  9 10  1  0  0  0  0
  9 11  4  0  0  0  0
 11 12  1  0  0  0  0
 11 13  4  0  0  0  0
 13 14  1  0  0  0  0
 14 15  1  0  0  0  0
 15 16  1  0  0  0  0
 15 17  1  0  0  0  0
 15 18  1  0  0  0  0
 13 19  4  0  0  0  0
 19 20  1  0  0  0  0
 19 21  4  0  0  0  0
 21  8  4  0  0  0  0
 21 22  1  0  0  0  0
  1 23  1  0  0  0  0
M  END
> <CAS>
104-46-1

> <NAME>
ANETHOLE

> <preferred_name>
Anethole

> <iupac>
1-methoxy-4-(prop-1-en-1-yl)benzene

> <SMILES>
CC=Cc1ccc(cc1)OC

> <Canonical_QSARr>
CC=Cc1ccc(cc1)OC

> <InChI_Code_QSARr>
InChI=1S/C10H12O/c1-3-4-9-5-7-10(11-2)8-6-9/h3-8H,1-2H3/b4-3+

> <InChI Key_QSARr>
RUVINXPYWBROJD-ONEGZZNKSA-N

> <Salt_Solvent>
?

> <WS Temperature>
25

> <WS Reference>
YALKOWSKY,SH & DANNENFELSER,RM (1992)

> <dsstox_substance_id>
DTXSID4020086

> <LogMolar>
-3.1256

$$$$
104-75-6
  -INDIGO-01081615412D

 28 27  0  0  0  0  0  0  0  0999 V2000
   -0.0000    2.2400    0.0000 N   0  0  0  0  0  0  0  0  0  0  0  0
   -0.0000    0.6400    0.0000 C   0  0  0  0  0  0  0  0  0  0  0  0
   -0.0000    0.0000    0.0000 C   0  0  0  0  0  0  0  0  0  0  0  0
   -1.5035   -0.5473    0.0000 C   0  0  0  0  0  0  0  0  0  0  0  0
   -3.0070   -1.0944    0.0000 C   0  0  0  0  0  0  0  0  0  0  0  0
   -4.5105   -1.6417    0.0000 H   0  0  0  0  0  0  0  0  0  0  0  0
   -3.2849   -2.6701    0.0000 H   0  0  0  0  0  0  0  0  0  0  0  0
   -4.2326   -0.0660    0.0000 H   0  0  0  0  0  0  0  0  0  0  0  0
   -0.9562   -2.0508    0.0000 H   0  0  0  0  0  0  0  0  0  0  0  0
   -2.5319    0.6784    0.0000 H   0  0  0  0  0  0  0  0  0  0  0  0
    1.5757   -0.2778    0.0000 C   0  0  0  0  0  0  0  0  0  0  0  0
    3.0792   -0.8251    0.0000 C   0  0  0  0  0  0  0  0  0  0  0  0
    4.5827   -1.3723    0.0000 C   0  0  0  0  0  0  0  0  0  0  0  0
    6.0862   -1.9195    0.0000 C   0  0  0  0  0  0  0  0  0  0  0  0
    7.5897   -2.4668    0.0000 H   0  0  0  0  0  0  0  0  0  0  0  0
    6.3641   -3.4952    0.0000 H   0  0  0  0  0  0  0  0  0  0  0  0
    7.3118   -0.8911    0.0000 H   0  0  0  0  0  0  0  0  0  0  0  0
    4.0354   -2.8759    0.0000 H   0  0  0  0  0  0  0  0  0  0  0  0
    5.1300    0.1312    0.0000 H   0  0  0  0  0  0  0  0  0  0  0  0
    2.5319   -2.3286    0.0000 H   0  0  0  0  0  0  0  0  0  0  0  0
    3.6265    0.6784    0.0000 H   0  0  0  0  0  0  0  0  0  0  0  0
    1.0284   -1.7813    0.0000 H   0  0  0  0  0  0  0  0  0  0  0  0
    2.3757    1.1078    0.0000 H   0  0  0  0  0  0  0  0  0  0  0  0
   -0.0000   -1.6000    0.0000 H   0  0  0  0  0  0  0  0  0  0  0  0
    1.6001    0.6400    0.0000 H   0  0  0  0  0  0  0  0  0  0  0  0
   -1.5757    0.9178    0.0000 H   0  0  0  0  0  0  0  0  0  0  0  0
   -1.3857    3.0400    0.0000 H   0  0  0  0  0  0  0  0  0  0  0  0
    1.3857    3.0400    0.0000 H   0  0  0  0  0  0  0  0  0  0  0  0
  1  2  1  0  0  0  0
  2  3  1  0  0  0  0
  3  4  1  0  0  0  0
  4  5  1  0  0  0  0
  5  6  1  0  0  0  0
  5  7  1  0  0  0  0
  5  8  1  0  0  0  0
  4  9  1  0  0  0  0
  4 10  1  0  0  0  0
  3 11  1  0  0  0  0
 11 12  1  0  0  0  0
 12 13  1  0  0  0  0
 13 14  1  0  0  0  0
 14 15  1  0  0  0  0
 14 16  1  0  0  0  0
 14 17  1  0  0  0  0
 13 18  1  0  0  0  0
 13 19  1  0  0  0  0
 12 20  1  0  0  0  0
 12 21  1  0  0  0  0
 11 22  1  0  0  0  0
 11 23  1  0  0  0  0
  3 24  1  0  0  0  0
  2 25  1  0  0  0  0
  2 26  1  0  0  0  0
  1 27  1  0  0  0  0
  1 28  1  0  0  0  0
M  END
> <CAS>
104-75-6

> <NAME>
2-ETHYLHEXYLAMINE

> <preferred_name>
2-Ethylhexylamine

> <iupac>
2-ethylhexan-1-amine

> <SMILES>
CCCCC(CN)CC

> <Canonical_QSARr>
CCCCC(CN)CC

> <InChI_Code_QSARr>
InChI=1S/C8H19N/c1-3-5-6-8(4-2)7-9/h8H,3-7,9H2,1-2H3

> <InChI Key_QSARr>
LTHNHFOGQMKPOV-UHFFFAOYSA-N

> <Salt_Solvent>
?

> <WS Temperature>
20

> <WS Reference>
RIDDICK,JA ET AL. (1986)

> <dsstox_substance_id>
DTXSID4025298

> <LogMolar>
-1.7135

$$$$
104-90-5
  -INDIGO-01081615412D

 20 20  0  0  0  0  0  0  0  0999 V2000
    4.0001    1.3856    0.0000 N   0  0  0  1  0  0  0  0  0  0  0  0
    2.3999    1.3856    0.0000 C   0  0  0  0  0  0  0  0  0  0  0  0
    1.5999    2.7713    0.0000 H   0  0  0  0  0  0  0  0  0  0  0  0
    1.5999   -0.0000    0.0000 C   0  0  0  0  0  0  0  0  0  0  0  0
   -0.0000    0.0000    0.0000 C   0  0  0  0  0  0  0  0  0  0  0  0
   -1.6000    0.0000    0.0000 C   0  0  0  0  0  0  0  0  0  0  0  0
   -3.2000   -0.0000    0.0000 H   0  0  0  0  0  0  0  0  0  0  0  0
   -2.4000    1.3856    0.0000 H   0  0  0  0  0  0  0  0  0  0  0  0
   -2.4000   -1.3856    0.0000 H   0  0  0  0  0  0  0  0  0  0  0  0
   -0.0000    1.6000    0.0000 H   0  0  0  0  0  0  0  0  0  0  0  0
   -0.0000   -1.6000    0.0000 H   0  0  0  0  0  0  0  0  0  0  0  0
    2.3999   -1.3856    0.0000 C   0  0  0  0  0  0  0  0  0  0  0  0
    1.5999   -2.7713    0.0000 H   0  0  0  0  0  0  0  0  0  0  0  0
    4.0001   -1.3856    0.0000 C   0  0  0  0  0  0  0  0  0  0  0  0
    4.8000   -2.7713    0.0000 H   0  0  0  0  0  0  0  0  0  0  0  0
    4.8000    0.0000    0.0000 C   0  0  0  0  0  0  0  0  0  0  0  0
    6.4000    0.0000    0.0000 C   0  0  0  0  0  0  0  0  0  0  0  0
    8.0000    0.0000    0.0000 H   0  0  0  0  0  0  0  0  0  0  0  0
    7.2000    1.3856    0.0000 H   0  0  0  0  0  0  0  0  0  0  0  0
    7.2000   -1.3856    0.0000 H   0  0  0  0  0  0  0  0  0  0  0  0
  1  2  4  0  0  0  0
  2  3  1  0  0  0  0
  2  4  4  0  0  0  0
  4  5  1  0  0  0  0
  5  6  1  0  0  0  0
  6  7  1  0  0  0  0
  6  8  1  0  0  0  0
  6  9  1  0  0  0  0
  5 10  1  0  0  0  0
  5 11  1  0  0  0  0
  4 12  4  0  0  0  0
 12 13  1  0  0  0  0
 12 14  4  0  0  0  0
 14 15  1  0  0  0  0
 14 16  4  0  0  0  0
 16  1  4  0  0  0  0
 16 17  1  0  0  0  0
 17 18  1  0  0  0  0
 17 19  1  0  0  0  0
 17 20  1  0  0  0  0
M  END
> <CAS>
104-90-5

> <NAME>
5-ETHYL-2-METHYLPYRIDINE

> <preferred_name>
5-Ethyl-2-methylpyridine

> <iupac>
5-ethyl-2-methylpyridine

> <SMILES>
Cc1ccc(CC)c[n]1

> <Canonical_QSARr>
Cc1ccc(CC)c[n]1

> <InChI_Code_QSARr>
InChI=1S/C8H11N/c1-3-8-5-4-7(2)9-6-8/h4-6H,3H2,1-2H3

> <InChI Key_QSARr>
NTSLROIKFLNUIJ-UHFFFAOYSA-N

> <Salt_Solvent>
?

> <WS Temperature>
20

> <WS Reference>
GOE,GL (1982)

> <dsstox_substance_id>
DTXSID7021861

> <LogMolar>
-1.0042

$$$$
105-13-5
  -INDIGO-01081615412D

 20 20  0  0  0  0  0  0  0  0999 V2000
    3.2001   -0.0000    0.0000 C   0  0  0  0  0  0  0  0  0  0  0  0
    4.8000    0.0000    0.0000 O   0  0  0  0  0  0  0  0  0  0  0  0
    5.6000   -1.3856    0.0000 C   0  0  0  0  0  0  0  0  0  0  0  0
    7.2000   -1.3856    0.0000 H   0  0  0  0  0  0  0  0  0  0  0  0
    6.4000   -2.7713    0.0000 H   0  0  0  0  0  0  0  0  0  0  0  0
    6.4000    0.0000    0.0000 H   0  0  0  0  0  0  0  0  0  0  0  0
    2.4001    1.3856    0.0000 C   0  0  0  0  0  0  0  0  0  0  0  0
    3.2001    2.7713    0.0000 H   0  0  0  0  0  0  0  0  0  0  0  0
    0.7999    1.3856    0.0000 C   0  0  0  0  0  0  0  0  0  0  0  0
   -0.0001    2.7713    0.0000 H   0  0  0  0  0  0  0  0  0  0  0  0
   -0.0001   -0.0000    0.0000 C   0  0  0  0  0  0  0  0  0  0  0  0
   -1.6000   -0.0000    0.0000 C   0  0  0  0  0  0  0  0  0  0  0  0
   -3.2000   -0.0000    0.0000 O   0  0  0  0  0  0  0  0  0  0  0  0
   -4.0000    1.3856    0.0000 H   0  0  0  0  0  0  0  0  0  0  0  0
   -1.6000    1.6000    0.0000 H   0  0  0  0  0  0  0  0  0  0  0  0
   -1.6000   -1.6000    0.0000 H   0  0  0  0  0  0  0  0  0  0  0  0
    0.7999   -1.3856    0.0000 C   0  0  0  0  0  0  0  0  0  0  0  0
   -0.0001   -2.7713    0.0000 H   0  0  0  0  0  0  0  0  0  0  0  0
    2.4001   -1.3856    0.0000 C   0  0  0  0  0  0  0  0  0  0  0  0
    3.2001   -2.7713    0.0000 H   0  0  0  0  0  0  0  0  0  0  0  0
  1  2  1  0  0  0  0
  2  3  1  0  0  0  0
  3  4  1  0  0  0  0
  3  5  1  0  0  0  0
  3  6  1  0  0  0  0
  1  7  4  0  0  0  0
  7  8  1  0  0  0  0
  7  9  4  0  0  0  0
  9 10  1  0  0  0  0
  9 11  4  0  0  0  0
 11 12  1  0  0  0  0
 12 13  1  0  0  0  0
 13 14  1  0  0  0  0
 12 15  1  0  0  0  0
 12 16  1  0  0  0  0
 11 17  4  0  0  0  0
 17 18  1  0  0  0  0
 17 19  4  0  0  0  0
 19  1  4  0  0  0  0
 19 20  1  0  0  0  0
M  END
> <CAS>
105-13-5

> <NAME>
P-METHOXYBENZYL ALCOHOL

> <preferred_name>
(4-Methoxyphenyl)methanol

> <iupac>
(4-methoxyphenyl)methanol

> <SMILES>
COc1ccc(CO)cc1

> <Canonical_QSARr>
COc1ccc(CO)cc1

> <InChI_Code_QSARr>
InChI=1S/C8H10O2/c1-10-8-4-2-7(6-9)3-5-8/h2-5,9H,6H2,1H3

> <InChI Key_QSARr>
MSHFRERJPWKJFX-UHFFFAOYSA-N

> <Salt_Solvent>
?

> <WS Temperature>
20

> <WS Reference>
BEILSTEIN

> <dsstox_substance_id>
DTXSID6044357

> <LogMolar>
-1.8394

$$$$
105-39-5
  -INDIGO-01081615412D

 14 13  0  0  0  0  0  0  0  0999 V2000
   -2.4000   -1.3856    0.0000 C   0  0  0  0  0  0  0  0  0  0  0  0
   -4.0001   -1.3856    0.0000 C   0  0  0  0  0  0  0  0  0  0  0  0
   -5.6000   -1.3856    0.0000 Cl  0  0  0  0  0  0  0  0  0  0  0  0
   -4.8000   -2.7713    0.0000 H   0  0  0  0  0  0  0  0  0  0  0  0
   -4.8000    0.0000    0.0000 H   0  0  0  0  0  0  0  0  0  0  0  0
   -1.6000    0.0000    0.0000 O   0  0  0  0  0  0  0  0  0  0  0  0
   -0.0000    0.0000    0.0000 C   0  0  0  0  0  0  0  0  0  0  0  0
    1.6001    0.0000    0.0000 C   0  0  0  0  0  0  0  0  0  0  0  0
    3.2000    0.0000    0.0000 H   0  0  0  0  0  0  0  0  0  0  0  0
    2.4000   -1.3856    0.0000 H   0  0  0  0  0  0  0  0  0  0  0  0
    2.4000    1.3856    0.0000 H   0  0  0  0  0  0  0  0  0  0  0  0
   -0.0000    1.6000    0.0000 H   0  0  0  0  0  0  0  0  0  0  0  0
   -0.0000   -1.6000    0.0000 H   0  0  0  0  0  0  0  0  0  0  0  0
   -1.6000   -2.7713    0.0000 O   0  0  0  0  0  0  0  0  0  0  0  0
  1  2  1  0  0  0  0
  2  3  1  0  0  0  0
  2  4  1  0  0  0  0
  2  5  1  0  0  0  0
  1  6  1  0  0  0  0
  6  7  1  0  0  0  0
  7  8  1  0  0  0  0
  8  9  1  0  0  0  0
  8 10  1  0  0  0  0
  8 11  1  0  0  0  0
  7 12  1  0  0  0  0
  7 13  1  0  0  0  0
  1 14  2  0  0  0  0
M  END
> <CAS>
105-39-5

> <NAME>
ETHYL CHLOROACETATE

> <preferred_name>
Ethyl chloroacetate

> <iupac>
ethyl chloroacetate

> <SMILES>
CCOC(=O)CCl

> <Canonical_QSARr>
CCOC(=O)CCl

> <InChI_Code_QSARr>
InChI=1S/C4H7ClO2/c1-2-7-4(6)3-5/h2-3H2,1H3

> <InChI Key_QSARr>
VEUUMBGHMNQHGO-UHFFFAOYSA-N

> <Salt_Solvent>
?

> <WS Temperature>
30

> <WS Reference>
NANDA,AK & SHARMA,MM (1967)

> <dsstox_substance_id>
DTXSID4026715

> <LogMolar>
-0.8005

$$$$
105-57-7
  -INDIGO-01081615412D

 22 21  0  0  0  0  0  0  0  0999 V2000
    0.0000    0.0000    0.0000 C   0  0  0  0  0  0  0  0  0  0  0  0
    1.3856   -0.8000    0.0000 C   0  0  0  0  0  0  0  0  0  0  0  0
    2.7713   -1.6000    0.0000 H   0  0  0  0  0  0  0  0  0  0  0  0
    1.3857   -2.4000    0.0000 H   0  0  0  0  0  0  0  0  0  0  0  0
    2.7713    0.0000    0.0000 H   0  0  0  0  0  0  0  0  0  0  0  0
   -1.3857    0.8001    0.0000 O   0  0  0  0  0  0  0  0  0  0  0  0
   -2.7713    0.0000    0.0000 C   0  0  0  0  0  0  0  0  0  0  0  0
   -4.1570   -0.8000    0.0000 C   0  0  0  0  0  0  0  0  0  0  0  0
   -5.5426   -1.6000    0.0000 H   0  0  0  0  0  0  0  0  0  0  0  0
   -5.5426    0.0000    0.0000 H   0  0  0  0  0  0  0  0  0  0  0  0
   -4.1569   -2.4000    0.0000 H   0  0  0  0  0  0  0  0  0  0  0  0
   -3.5713    1.3857    0.0000 H   0  0  0  0  0  0  0  0  0  0  0  0
   -1.9713   -1.3856    0.0000 H   0  0  0  0  0  0  0  0  0  0  0  0
    0.8000    1.3857    0.0000 O   0  0  0  0  0  0  0  0  0  0  0  0
    0.0000    2.7713    0.0000 C   0  0  0  0  0  0  0  0  0  0  0  0
   -0.8000    4.1569    0.0000 C   0  0  0  0  0  0  0  0  0  0  0  0
   -1.6000    5.5426    0.0000 H   0  0  0  0  0  0  0  0  0  0  0  0
    0.0000    5.5426    0.0000 H   0  0  0  0  0  0  0  0  0  0  0  0
   -2.4000    4.1569    0.0000 H   0  0  0  0  0  0  0  0  0  0  0  0
    1.3856    3.5713    0.0000 H   0  0  0  0  0  0  0  0  0  0  0  0
   -1.3857    1.9713    0.0000 H   0  0  0  0  0  0  0  0  0  0  0  0
   -0.8000   -1.3856    0.0000 H   0  0  0  0  0  0  0  0  0  0  0  0
  1  2  1  0  0  0  0
  2  3  1  0  0  0  0
  2  4  1  0  0  0  0
  2  5  1  0  0  0  0
  1  6  1  0  0  0  0
  6  7  1  0  0  0  0
  7  8  1  0  0  0  0
  8  9  1  0  0  0  0
  8 10  1  0  0  0  0
  8 11  1  0  0  0  0
  7 12  1  0  0  0  0
  7 13  1  0  0  0  0
  1 14  1  0  0  0  0
 14 15  1  0  0  0  0
 15 16  1  0  0  0  0
 16 17  1  0  0  0  0
 16 18  1  0  0  0  0
 16 19  1  0  0  0  0
 15 20  1  0  0  0  0
 15 21  1  0  0  0  0
  1 22  1  0  0  0  0
M  END
> <CAS>
105-57-7

> <NAME>
1,1-DIETHOXYETHANE

> <preferred_name>
Acetal

> <iupac>
1,1-diethoxyethane

> <SMILES>
CC(OCC)OCC

> <Canonical_QSARr>
CC(OCC)OCC

> <InChI_Code_QSARr>
InChI=1S/C6H14O2/c1-4-7-6(3)8-5-2/h6H,4-5H2,1-3H3

> <InChI Key_QSARr>
DHKHKXVYLBGOIT-UHFFFAOYSA-N

> <Salt_Solvent>
?

> <WS Temperature>
25

> <WS Reference>
YALKOWSKY,SH & DANNENFELSER,RM (1992)

> <dsstox_substance_id>
DTXSID6030607

> <LogMolar>
-0.4291

$$$$
106-24-1, 106-25-2
  -INDIGO-01081615412D

 29 28  0  0  0  0  0  0  0  0999 V2000
   -4.0000   -1.3857    0.0000 C   0  0  0  0  0  0  0  0  0  0  0  0
   -5.6000   -1.3857    0.0000 O   0  0  0  0  0  0  0  0  0  0  0  0
   -6.4000   -2.7713    0.0000 H   0  0  0  0  0  0  0  0  0  0  0  0
   -2.4000   -1.3857    0.0000 C   0  0  0  0  0  0  0  0  0  0  0  0
   -1.6000   -0.0000    0.0000 C   0  0  0  0  0  0  0  0  0  0  0  0
   -2.4000    1.3857    0.0000 C   0  0  0  0  0  0  0  0  0  0  0  0
   -3.2000    2.7712    0.0000 H   0  0  0  0  0  0  0  0  0  0  0  0
   -4.0000    1.3857    0.0000 H   0  0  0  0  0  0  0  0  0  0  0  0
   -1.6000    2.7712    0.0000 H   0  0  0  0  0  0  0  0  0  0  0  0
    0.0000   -0.0000    0.0000 C   0  0  0  0  0  0  0  0  0  0  0  0
    1.6000   -0.0000    0.0000 C   0  0  0  0  0  0  0  0  0  0  0  0
    3.2000   -0.0000    0.0000 C   0  0  0  0  0  0  0  0  0  0  0  0
    4.0000    1.3857    0.0000 C   0  0  0  0  0  0  0  0  0  0  0  0
    5.6000    1.3857    0.0000 C   0  0  0  0  0  0  0  0  0  0  0  0
    7.2000    1.3857    0.0000 H   0  0  0  0  0  0  0  0  0  0  0  0
    6.4000    2.7712    0.0000 H   0  0  0  0  0  0  0  0  0  0  0  0
    6.4000   -0.0000    0.0000 H   0  0  0  0  0  0  0  0  0  0  0  0
    3.2000    2.7712    0.0000 C   0  0  0  0  0  0  0  0  0  0  0  0
    4.0000    4.1569    0.0000 H   0  0  0  0  0  0  0  0  0  0  0  0
    2.4000    4.1569    0.0000 H   0  0  0  0  0  0  0  0  0  0  0  0
    4.8000    2.7712    0.0000 H   0  0  0  0  0  0  0  0  0  0  0  0
    4.0000   -1.3857    0.0000 H   0  0  0  0  0  0  0  0  0  0  0  0
    1.6000   -1.6000    0.0000 H   0  0  0  0  0  0  0  0  0  0  0  0
    1.6000    1.6001    0.0000 H   0  0  0  0  0  0  0  0  0  0  0  0
    0.0000    1.6001    0.0000 H   0  0  0  0  0  0  0  0  0  0  0  0
    0.0000   -1.6000    0.0000 H   0  0  0  0  0  0  0  0  0  0  0  0
   -1.6000   -2.7713    0.0000 H   0  0  0  0  0  0  0  0  0  0  0  0
   -4.0000   -2.9856    0.0000 H   0  0  0  0  0  0  0  0  0  0  0  0
   -4.0000    0.2144    0.0000 H   0  0  0  0  0  0  0  0  0  0  0  0
  1  2  1  0  0  0  0
  2  3  1  0  0  0  0
  1  4  1  0  0  0  0
  4  5  2  0  0  0  0
  5  6  1  0  0  0  0
  6  7  1  0  0  0  0
  6  8  1  0  0  0  0
  6  9  1  0  0  0  0
  5 10  1  0  0  0  0
 10 11  1  0  0  0  0
 11 12  1  0  0  0  0
 12 13  2  0  0  0  0
 13 14  1  0  0  0  0
 14 15  1  0  0  0  0
 14 16  1  0  0  0  0
 14 17  1  0  0  0  0
 13 18  1  0  0  0  0
 18 19  1  0  0  0  0
 18 20  1  0  0  0  0
 18 21  1  0  0  0  0
 12 22  1  0  0  0  0
 11 23  1  0  0  0  0
 11 24  1  0  0  0  0
 10 25  1  0  0  0  0
 10 26  1  0  0  0  0
  4 27  1  0  0  0  0
  1 28  1  0  0  0  0
  1 29  1  0  0  0  0
M  END
> <CAS>
106-24-1, 106-25-2

> <NAME>
GERANIOL, 2,6-Octadien-1-ol, 3,7-dimethyl-, (Z)-

> <preferred_name>
Geraniol

> <iupac>
(2E)-3,7-dimethylocta-2,6-dien-1-ol

> <SMILES>
CC(C)=CCC/C(/C)=C/CO

> <Canonical_QSARr>
CC(C)=CCCC(C)=CCO

> <InChI_Code_QSARr>
InChI=1S/C10H18O/c1-9(2)5-4-6-10(3)7-8-11/h5,7,11H,4,6,8H2,1-3H3/b10-7+

> <InChI Key_QSARr>
GLZPCOQZEFWAFX-JXMROGBWSA-N

> <Salt_Solvent>
?

> <WS Temperature>
25

> <WS Reference>
CHEMICALS INSPECTION AND TESTING INSTITU (1992)

> <dsstox_substance_id>
DTXSID8026727

> <LogMolar>
-2.82565

$$$$
106-36-5
  -INDIGO-01081615412D

 20 19  0  0  0  0  0  0  0  0999 V2000
    4.0000   -1.3857    0.0000 C   0  0  0  0  0  0  0  0  0  0  0  0
    3.2000   -2.7713    0.0000 O   0  0  0  0  0  0  0  0  0  0  0  0
    3.2000    0.0000    0.0000 O   0  0  0  0  0  0  0  0  0  0  0  0
    1.6000    0.0000    0.0000 C   0  0  0  0  0  0  0  0  0  0  0  0
    0.0000    0.0000    0.0000 C   0  0  0  0  0  0  0  0  0  0  0  0
   -1.6000    0.0000    0.0000 C   0  0  0  0  0  0  0  0  0  0  0  0
   -3.2000    0.0000    0.0000 H   0  0  0  0  0  0  0  0  0  0  0  0
   -2.4000   -1.3857    0.0000 H   0  0  0  0  0  0  0  0  0  0  0  0
   -2.4000    1.3857    0.0000 H   0  0  0  0  0  0  0  0  0  0  0  0
    0.0000    1.6000    0.0000 H   0  0  0  0  0  0  0  0  0  0  0  0
    0.0000   -1.6000    0.0000 H   0  0  0  0  0  0  0  0  0  0  0  0
    1.6000   -1.6000    0.0000 H   0  0  0  0  0  0  0  0  0  0  0  0
    1.6000    1.6000    0.0000 H   0  0  0  0  0  0  0  0  0  0  0  0
    5.6000   -1.3857    0.0000 C   0  0  0  0  0  0  0  0  0  0  0  0
    7.2000   -1.3857    0.0000 C   0  0  0  0  0  0  0  0  0  0  0  0
    8.8000   -1.3857    0.0000 H   0  0  0  0  0  0  0  0  0  0  0  0
    8.0000   -2.7713    0.0000 H   0  0  0  0  0  0  0  0  0  0  0  0
    8.0000    0.0000    0.0000 H   0  0  0  0  0  0  0  0  0  0  0  0
    5.6000   -2.9856    0.0000 H   0  0  0  0  0  0  0  0  0  0  0  0
    5.6000    0.2143    0.0000 H   0  0  0  0  0  0  0  0  0  0  0  0
  1  2  2  0  0  0  0
  1  3  1  0  0  0  0
  3  4  1  0  0  0  0
  4  5  1  0  0  0  0
  5  6  1  0  0  0  0
  6  7  1  0  0  0  0
  6  8  1  0  0  0  0
  6  9  1  0  0  0  0
  5 10  1  0  0  0  0
  5 11  1  0  0  0  0
  4 12  1  0  0  0  0
  4 13  1  0  0  0  0
  1 14  1  0  0  0  0
 14 15  1  0  0  0  0
 15 16  1  0  0  0  0
 15 17  1  0  0  0  0
 15 18  1  0  0  0  0
 14 19  1  0  0  0  0
 14 20  1  0  0  0  0
M  END
> <CAS>
106-36-5

> <NAME>
N-PROPYLPROPIONATE

> <preferred_name>
Propyl propionate

> <iupac>
propyl propanoate

> <SMILES>
CCC(=O)OCCC

> <Canonical_QSARr>
CCC(=O)OCCC

> <InChI_Code_QSARr>
InChI=1S/C6H12O2/c1-3-5-8-6(7)4-2/h3-5H2,1-2H3

> <InChI Key_QSARr>
MCSINKKTEDDPNK-UHFFFAOYSA-N

> <Salt_Solvent>
?

> <WS Temperature>
25

> <WS Reference>
SUZUKI,T (1991)

> <dsstox_substance_id>
DTXSID4042337

> <LogMolar>
-1.3406

$$$$
106-41-2
  -INDIGO-01081615412D

 13 13  0  0  0  0  0  0  0  0999 V2000
    0.0000   -0.0000    0.0000 C   0  0  0  0  0  0  0  0  0  0  0  0
   -0.8000    1.3856    0.0000 C   0  0  0  0  0  0  0  0  0  0  0  0
    0.0000    2.7713    0.0000 H   0  0  0  0  0  0  0  0  0  0  0  0
   -2.4000    1.3856    0.0000 C   0  0  0  0  0  0  0  0  0  0  0  0
   -3.2000    2.7713    0.0000 H   0  0  0  0  0  0  0  0  0  0  0  0
   -3.2000   -0.0000    0.0000 C   0  0  0  0  0  0  0  0  0  0  0  0
   -4.8000   -0.0000    0.0000 Br  0  0  0  0  0  0  0  0  0  0  0  0
   -2.4000   -1.3856    0.0000 C   0  0  0  0  0  0  0  0  0  0  0  0
   -3.2000   -2.7713    0.0000 H   0  0  0  0  0  0  0  0  0  0  0  0
   -0.8000   -1.3856    0.0000 C   0  0  0  0  0  0  0  0  0  0  0  0
    0.0000   -2.7713    0.0000 H   0  0  0  0  0  0  0  0  0  0  0  0
    1.6000    0.0000    0.0000 O   0  0  0  0  0  0  0  0  0  0  0  0
    2.4000   -1.3856    0.0000 H   0  0  0  0  0  0  0  0  0  0  0  0
  1  2  4  0  0  0  0
  2  3  1  0  0  0  0
  2  4  4  0  0  0  0
  4  5  1  0  0  0  0
  4  6  4  0  0  0  0
  6  7  1  0  0  0  0
  6  8  4  0  0  0  0
  8  9  1  0  0  0  0
  8 10  4  0  0  0  0
 10  1  4  0  0  0  0
 10 11  1  0  0  0  0
  1 12  1  0  0  0  0
 12 13  1  0  0  0  0
M  END
> <CAS>
106-41-2

> <NAME>
P-BROMOPHENOL

> <preferred_name>
4-Bromophenol

> <iupac>
4-bromophenol

> <SMILES>
Oc1ccc(Br)cc1

> <Canonical_QSARr>
Oc1ccc(Br)cc1

> <InChI_Code_QSARr>
InChI=1S/C6H5BrO/c7-5-1-3-6(8)4-2-5/h1-4,8H

> <InChI Key_QSARr>
GZFGOTFRPZRKDS-UHFFFAOYSA-N

> <Salt_Solvent>
?

> <WS Temperature>
25

> <WS Reference>
CHEMICALS INSPECTION AND TESTING INSTITU (1992)

> <dsstox_substance_id>
DTXSID3051543

> <LogMolar>
-1.092

$$$$
106-46-7
  -INDIGO-01081615412D

 12 12  0  0  0  0  0  0  0  0999 V2000
   -0.8000    1.3856    0.0000 Cl  0  0  0  0  0  0  0  0  0  0  0  0
    0.0000   -0.0000    0.0000 C   0  0  0  0  0  0  0  0  0  0  0  0
   -0.8000   -1.3857    0.0000 C   0  0  0  0  0  0  0  0  0  0  0  0
   -2.4000   -1.3857    0.0000 H   0  0  0  0  0  0  0  0  0  0  0  0
    0.0000   -2.7713    0.0000 C   0  0  0  0  0  0  0  0  0  0  0  0
   -0.8000   -4.1569    0.0000 H   0  0  0  0  0  0  0  0  0  0  0  0
    1.6000   -2.7713    0.0000 C   0  0  0  0  0  0  0  0  0  0  0  0
    2.4000   -4.1569    0.0000 Cl  0  0  0  0  0  0  0  0  0  0  0  0
    2.4000   -1.3857    0.0000 C   0  0  0  0  0  0  0  0  0  0  0  0
    4.0000   -1.3857    0.0000 H   0  0  0  0  0  0  0  0  0  0  0  0
    1.6000   -0.0000    0.0000 C   0  0  0  0  0  0  0  0  0  0  0  0
    2.4000    1.3856    0.0000 H   0  0  0  0  0  0  0  0  0  0  0  0
  1  2  1  0  0  0  0
  2  3  4  0  0  0  0
  3  4  1  0  0  0  0
  3  5  4  0  0  0  0
  5  6  1  0  0  0  0
  5  7  4  0  0  0  0
  7  8  1  0  0  0  0
  7  9  4  0  0  0  0
  9 10  1  0  0  0  0
  9 11  4  0  0  0  0
 11  2  4  0  0  0  0
 11 12  1  0  0  0  0
M  END
> <CAS>
106-46-7

> <NAME>
1,4-DICHLOROBENZENE

> <preferred_name>
1,4-Dichlorobenzene

> <iupac>
1,4-dichlorobenzene

> <SMILES>
Clc1ccc(Cl)cc1

> <Canonical_QSARr>
Clc1ccc(Cl)cc1

> <InChI_Code_QSARr>
InChI=1S/C6H4Cl2/c7-5-1-2-6(8)4-3-5/h1-4H

> <InChI Key_QSARr>
OCJBOOLMMGQPQU-UHFFFAOYSA-N

> <Salt_Solvent>
?

> <WS Temperature>
25

> <WS Reference>
YALKOWSKY,SH & HE,Y (2003)

> <dsstox_substance_id>
DTXSID1020431

> <LogMolar>
-3.2572

$$$$
106-50-3
  -INDIGO-01081615412D

 16 16  0  0  0  0  0  0  0  0999 V2000
    1.6001    0.0000    0.0000 N   0  0  0  0  0  0  0  0  0  0  0  0
    0.0001   -0.0000    0.0000 C   0  0  0  0  0  0  0  0  0  0  0  0
   -0.8000    1.3856    0.0000 C   0  0  0  0  0  0  0  0  0  0  0  0
   -0.0001    2.7713    0.0000 H   0  0  0  0  0  0  0  0  0  0  0  0
   -2.4000    1.3856    0.0000 C   0  0  0  0  0  0  0  0  0  0  0  0
   -3.2001    2.7713    0.0000 H   0  0  0  0  0  0  0  0  0  0  0  0
   -3.2001   -0.0000    0.0000 C   0  0  0  0  0  0  0  0  0  0  0  0
   -4.7999   -0.0000    0.0000 N   0  0  0  0  0  0  0  0  0  0  0  0
   -5.6000    1.3856    0.0000 H   0  0  0  0  0  0  0  0  0  0  0  0
   -5.6000   -1.3856    0.0000 H   0  0  0  0  0  0  0  0  0  0  0  0
   -2.4000   -1.3856    0.0000 C   0  0  0  0  0  0  0  0  0  0  0  0
   -3.2001   -2.7713    0.0000 H   0  0  0  0  0  0  0  0  0  0  0  0
   -0.8000   -1.3856    0.0000 C   0  0  0  0  0  0  0  0  0  0  0  0
    0.0001   -2.7713    0.0000 H   0  0  0  0  0  0  0  0  0  0  0  0
    2.4000   -1.3856    0.0000 H   0  0  0  0  0  0  0  0  0  0  0  0
    2.4000    1.3856    0.0000 H   0  0  0  0  0  0  0  0  0  0  0  0
  1  2  1  0  0  0  0
  2  3  4  0  0  0  0
  3  4  1  0  0  0  0
  3  5  4  0  0  0  0
  5  6  1  0  0  0  0
  5  7  4  0  0  0  0
  7  8  1  0  0  0  0
  8  9  1  0  0  0  0
  8 10  1  0  0  0  0
  7 11  4  0  0  0  0
 11 12  1  0  0  0  0
 11 13  4  0  0  0  0
 13  2  4  0  0  0  0
 13 14  1  0  0  0  0
  1 15  1  0  0  0  0
  1 16  1  0  0  0  0
M  END
> <CAS>
106-50-3

> <NAME>
1,4-BENZENEDIAMINE

> <preferred_name>
1,4-Benzenediamine

> <iupac>
benzene-1,4-diamine

> <SMILES>
Nc1ccc(N)cc1

> <Canonical_QSARr>
Nc1ccc(N)cc1

> <InChI_Code_QSARr>
InChI=1S/C6H8N2/c7-5-1-2-6(8)4-3-5/h1-4H,7-8H2

> <InChI Key_QSARr>
CBCKQZAAMUWICA-UHFFFAOYSA-N

> <Salt_Solvent>
?

> <WS Temperature>
23

> <WS Reference>
SEIDELL,A (1941)

> <dsstox_substance_id>
DTXSID9021138

> <LogMolar>
-0.4658

$$$$
106-63-8
  -INDIGO-01081615412D

 21 20  0  0  0  0  0  0  0  0999 V2000
    6.9618   -0.4152    0.0000 C   0  0  0  0  0  0  0  0  0  0  0  0
    5.7362    0.6132    0.0000 C   0  0  0  0  0  0  0  0  0  0  0  0
    4.2327    0.0660    0.0000 C   0  0  0  0  0  0  0  0  0  0  0  0
    3.0069    1.0945    0.0000 O   0  0  0  0  0  0  0  0  0  0  0  0
    1.5036    0.5472    0.0000 C   0  0  0  0  0  0  0  0  0  0  0  0
    0.0000    0.0000    0.0000 C   0  0  0  0  0  0  0  0  0  0  0  0
   -1.3857   -0.8000    0.0000 C   0  0  0  0  0  0  0  0  0  0  0  0
   -2.7713   -1.6000    0.0000 H   0  0  0  0  0  0  0  0  0  0  0  0
   -1.3857   -2.4000    0.0000 H   0  0  0  0  0  0  0  0  0  0  0  0
   -2.7713    0.0000    0.0000 H   0  0  0  0  0  0  0  0  0  0  0  0
   -0.8000    1.3856    0.0000 C   0  0  0  0  0  0  0  0  0  0  0  0
   -1.6000    2.7713    0.0000 H   0  0  0  0  0  0  0  0  0  0  0  0
   -2.4001    1.3856    0.0000 H   0  0  0  0  0  0  0  0  0  0  0  0
    0.0000    2.7713    0.0000 H   0  0  0  0  0  0  0  0  0  0  0  0
    0.8001   -1.3856    0.0000 H   0  0  0  0  0  0  0  0  0  0  0  0
    2.0507   -0.9563    0.0000 H   0  0  0  0  0  0  0  0  0  0  0  0
    1.2256    2.1229    0.0000 H   0  0  0  0  0  0  0  0  0  0  0  0
    3.9548   -1.5097    0.0000 O   0  0  0  0  0  0  0  0  0  0  0  0
    6.0140    2.1889    0.0000 H   0  0  0  0  0  0  0  0  0  0  0  0
    8.4654    0.1320    0.0000 H   0  0  0  0  0  0  0  0  0  0  0  0
    6.6841   -1.9909    0.0000 H   0  0  0  0  0  0  0  0  0  0  0  0
  1  2  2  0  0  0  0
  2  3  1  0  0  0  0
  3  4  1  0  0  0  0
  4  5  1  0  0  0  0
  5  6  1  0  0  0  0
  6  7  1  0  0  0  0
  7  8  1  0  0  0  0
  7  9  1  0  0  0  0
  7 10  1  0  0  0  0
  6 11  1  0  0  0  0
 11 12  1  0  0  0  0
 11 13  1  0  0  0  0
 11 14  1  0  0  0  0
  6 15  1  0  0  0  0
  5 16  1  0  0  0  0
  5 17  1  0  0  0  0
  3 18  2  0  0  0  0
  2 19  1  0  0  0  0
  1 20  1  0  0  0  0
  1 21  1  0  0  0  0
M  END
> <CAS>
106-63-8

> <NAME>
ISOBUTYL ACRYLATE

> <preferred_name>
Isobutyl acrylate

> <iupac>
2-methylpropyl prop-2-enoate

> <SMILES>
CC(C)COC(=O)C=C

> <Canonical_QSARr>
CC(C)COC(=O)C=C

> <InChI_Code_QSARr>
InChI=1S/C7H12O2/c1-4-7(8)9-5-6(2)3/h4,6H,1,5H2,2-3H3

> <InChI Key_QSARr>
CFVWNXQPGQOHRJ-UHFFFAOYSA-N

> <Salt_Solvent>
?

> <WS Temperature>
25

> <WS Reference>
ULLMANN'S ENCYCL; A1:163

> <dsstox_substance_id>
DTXSID1021873

> <LogMolar>
-1.8525

$$$$
106-79-6
  -INDIGO-01081615412D

 38 37  0  0  0  0  0  0  0  0999 V2000
   -6.3999   -0.0000    0.0000 C   0  0  0  0  0  0  0  0  0  0  0  0
   -7.2000    1.3856    0.0000 O   0  0  0  0  0  0  0  0  0  0  0  0
   -7.2000   -1.3856    0.0000 O   0  0  0  0  0  0  0  0  0  0  0  0
   -8.8000   -1.3856    0.0000 C   0  0  0  0  0  0  0  0  0  0  0  0
  -10.4000   -1.3856    0.0000 H   0  0  0  0  0  0  0  0  0  0  0  0
   -9.5998   -2.7713    0.0000 H   0  0  0  0  0  0  0  0  0  0  0  0
   -9.5998   -0.0000    0.0000 H   0  0  0  0  0  0  0  0  0  0  0  0
   -4.7999   -0.0000    0.0000 C   0  0  0  0  0  0  0  0  0  0  0  0
   -3.1999    0.0000    0.0000 C   0  0  0  0  0  0  0  0  0  0  0  0
   -1.6000    0.0000    0.0000 C   0  0  0  0  0  0  0  0  0  0  0  0
    0.0000    0.0000    0.0000 C   0  0  0  0  0  0  0  0  0  0  0  0
    1.6000    0.0000    0.0000 C   0  0  0  0  0  0  0  0  0  0  0  0
    3.2000    0.0000    0.0000 C   0  0  0  0  0  0  0  0  0  0  0  0
    4.7999    0.0000    0.0000 C   0  0  0  0  0  0  0  0  0  0  0  0
    6.3999    0.0000    0.0000 C   0  0  0  0  0  0  0  0  0  0  0  0
    7.9999    0.0000    0.0000 C   0  0  0  0  0  0  0  0  0  0  0  0
    8.8000   -1.3856    0.0000 O   0  0  0  0  0  0  0  0  0  0  0  0
    8.8000    1.3856    0.0000 O   0  0  0  0  0  0  0  0  0  0  0  0
   10.4000    1.3856    0.0000 C   0  0  0  0  0  0  0  0  0  0  0  0
   12.0000    1.3856    0.0000 H   0  0  0  0  0  0  0  0  0  0  0  0
   11.1998    2.7713    0.0000 H   0  0  0  0  0  0  0  0  0  0  0  0
   11.1998    0.0000    0.0000 H   0  0  0  0  0  0  0  0  0  0  0  0
    6.3999   -1.6000    0.0000 H   0  0  0  0  0  0  0  0  0  0  0  0
    6.3999    1.6000    0.0000 H   0  0  0  0  0  0  0  0  0  0  0  0
    4.7999   -1.6000    0.0000 H   0  0  0  0  0  0  0  0  0  0  0  0
    4.7999    1.6000    0.0000 H   0  0  0  0  0  0  0  0  0  0  0  0
    3.2000   -1.6000    0.0000 H   0  0  0  0  0  0  0  0  0  0  0  0
    3.2000    1.6000    0.0000 H   0  0  0  0  0  0  0  0  0  0  0  0
    1.6000   -1.6000    0.0000 H   0  0  0  0  0  0  0  0  0  0  0  0
    1.6000    1.6000    0.0000 H   0  0  0  0  0  0  0  0  0  0  0  0
    0.0000    1.6000    0.0000 H   0  0  0  0  0  0  0  0  0  0  0  0
    0.0000   -1.6000    0.0000 H   0  0  0  0  0  0  0  0  0  0  0  0
   -1.6000   -1.6000    0.0000 H   0  0  0  0  0  0  0  0  0  0  0  0
   -1.6000    1.6000    0.0000 H   0  0  0  0  0  0  0  0  0  0  0  0
   -3.1999    1.6000    0.0000 H   0  0  0  0  0  0  0  0  0  0  0  0
   -3.1999   -1.6000    0.0000 H   0  0  0  0  0  0  0  0  0  0  0  0
   -4.7999   -1.6000    0.0000 H   0  0  0  0  0  0  0  0  0  0  0  0
   -4.7999    1.6000    0.0000 H   0  0  0  0  0  0  0  0  0  0  0  0
  1  2  2  0  0  0  0
  1  3  1  0  0  0  0
  3  4  1  0  0  0  0
  4  5  1  0  0  0  0
  4  6  1  0  0  0  0
  4  7  1  0  0  0  0
  1  8  1  0  0  0  0
  8  9  1  0  0  0  0
  9 10  1  0  0  0  0
 10 11  1  0  0  0  0
 11 12  1  0  0  0  0
 12 13  1  0  0  0  0
 13 14  1  0  0  0  0
 14 15  1  0  0  0  0
 15 16  1  0  0  0  0
 16 17  2  0  0  0  0
 16 18  1  0  0  0  0
 18 19  1  0  0  0  0
 19 20  1  0  0  0  0
 19 21  1  0  0  0  0
 19 22  1  0  0  0  0
 15 23  1  0  0  0  0
 15 24  1  0  0  0  0
 14 25  1  0  0  0  0
 14 26  1  0  0  0  0
 13 27  1  0  0  0  0
 13 28  1  0  0  0  0
 12 29  1  0  0  0  0
 12 30  1  0  0  0  0
 11 31  1  0  0  0  0
 11 32  1  0  0  0  0
 10 33  1  0  0  0  0
 10 34  1  0  0  0  0
  9 35  1  0  0  0  0
  9 36  1  0  0  0  0
  8 37  1  0  0  0  0
  8 38  1  0  0  0  0
M  END
> <CAS>
106-79-6

> <NAME>
Decanedioic acid, dimethyl ester

> <preferred_name>
Dimethyl decanedioate

> <iupac>
dimethyl decanedioate

> <SMILES>
COC(=O)CCCCCCCCC(=O)OC

> <Canonical_QSARr>
COC(=O)CCCCCCCCC(=O)OC

> <InChI_Code_QSARr>
InChI=1S/C12H22O4/c1-15-11(13)9-7-5-3-4-6-8-10-12(14)16-2/h3-10H2,1-2H3

> <InChI Key_QSARr>
ALOUNLDAKADEEB-UHFFFAOYSA-N

> <Salt_Solvent>
?

> <WS Temperature>


> <WS Reference>
BEILSTEIN

> <dsstox_substance_id>
DTXSID1026740

> <LogMolar>
-3.2831

$$$$
106-94-5
  -INDIGO-01081615412D

 11 10  0  0  0  0  0  0  0  0999 V2000
    2.4000    1.3856    0.0000 Br  0  0  0  0  0  0  0  0  0  0  0  0
    1.6000    0.0000    0.0000 C   0  0  0  0  0  0  0  0  0  0  0  0
    0.0000    0.0000    0.0000 C   0  0  0  0  0  0  0  0  0  0  0  0
   -1.6000   -0.0000    0.0000 C   0  0  0  0  0  0  0  0  0  0  0  0
   -3.2000   -0.0000    0.0000 H   0  0  0  0  0  0  0  0  0  0  0  0
   -2.4000   -1.3856    0.0000 H   0  0  0  0  0  0  0  0  0  0  0  0
   -2.4000    1.3856    0.0000 H   0  0  0  0  0  0  0  0  0  0  0  0
    0.0000    1.6000    0.0000 H   0  0  0  0  0  0  0  0  0  0  0  0
    0.0000   -1.6000    0.0000 H   0  0  0  0  0  0  0  0  0  0  0  0
    3.2000    0.0000    0.0000 H   0  0  0  0  0  0  0  0  0  0  0  0
    2.4000   -1.3856    0.0000 H   0  0  0  0  0  0  0  0  0  0  0  0
  1  2  1  0  0  0  0
  2  3  1  0  0  0  0
  3  4  1  0  0  0  0
  4  5  1  0  0  0  0
  4  6  1  0  0  0  0
  4  7  1  0  0  0  0
  3  8  1  0  0  0  0
  3  9  1  0  0  0  0
  2 10  1  0  0  0  0
  2 11  1  0  0  0  0
M  END
> <CAS>
106-94-5

> <NAME>
1-BROMOPROPANE

> <preferred_name>
1-Bromopropane

> <iupac>
1-bromopropane

> <SMILES>
CCCBr

> <Canonical_QSARr>
CCCBr

> <InChI_Code_QSARr>
InChI=1S/C3H7Br/c1-2-3-4/h2-3H2,1H3

> <InChI Key_QSARr>
CYNYIHKIEHGYOZ-UHFFFAOYSA-N

> <Salt_Solvent>
?

> <WS Temperature>
20

> <WS Reference>
YALKOWSKY,SH & HE,Y (2003)

> <dsstox_substance_id>
DTXSID6021874

> <LogMolar>
-1.7007

$$$$
106-98-9
  -INDIGO-01081615412D

 12 11  0  0  0  0  0  0  0  0999 V2000
   -2.4000   -1.3856    0.0000 C   0  0  0  0  0  0  0  0  0  0  0  0
   -1.6000    0.0000    0.0000 C   0  0  0  0  0  0  0  0  0  0  0  0
   -0.0000    0.0000    0.0000 C   0  0  0  0  0  0  0  0  0  0  0  0
    1.6000    0.0000    0.0000 C   0  0  0  0  0  0  0  0  0  0  0  0
    3.2000    0.0000    0.0000 H   0  0  0  0  0  0  0  0  0  0  0  0
    2.4000   -1.3856    0.0000 H   0  0  0  0  0  0  0  0  0  0  0  0
    2.4000    1.3856    0.0000 H   0  0  0  0  0  0  0  0  0  0  0  0
   -0.0000    1.6000    0.0000 H   0  0  0  0  0  0  0  0  0  0  0  0
   -0.0000   -1.6000    0.0000 H   0  0  0  0  0  0  0  0  0  0  0  0
   -2.4000    1.3856    0.0000 H   0  0  0  0  0  0  0  0  0  0  0  0
   -4.0000   -1.3856    0.0000 H   0  0  0  0  0  0  0  0  0  0  0  0
   -1.6000   -2.7713    0.0000 H   0  0  0  0  0  0  0  0  0  0  0  0
  1  2  2  0  0  0  0
  2  3  1  0  0  0  0
  3  4  1  0  0  0  0
  4  5  1  0  0  0  0
  4  6  1  0  0  0  0
  4  7  1  0  0  0  0
  3  8  1  0  0  0  0
  3  9  1  0  0  0  0
  2 10  1  0  0  0  0
  1 11  1  0  0  0  0
  1 12  1  0  0  0  0
M  END
> <CAS>
106-98-9

> <NAME>
1-BUTENE

> <preferred_name>
1-Butene

> <iupac>
but-1-ene

> <SMILES>
CCC=C

> <Canonical_QSARr>
CCC=C

> <InChI_Code_QSARr>
InChI=1S/C4H8/c1-3-4-2/h3H,1,4H2,2H3

> <InChI Key_QSARr>
VXNZUUAINFGPBY-UHFFFAOYSA-N

> <Salt_Solvent>
?

> <WS Temperature>
25

> <WS Reference>
MCAULIFFE,C (1966)

> <dsstox_substance_id>
DTXSID1026746

> <LogMolar>
-2.4046

$$$$
107-03-9
  -INDIGO-01081615412D

 12 11  0  0  0  0  0  0  0  0999 V2000
    1.6000    0.0000    0.0000 C   0  0  0  0  0  0  0  0  0  0  0  0
    3.2000    0.0000    0.0000 S   0  0  0  0  0  0  0  0  0  0  0  0
    4.0000   -1.3856    0.0000 H   0  0  0  0  0  0  0  0  0  0  0  0
    0.0000    0.0000    0.0000 C   0  0  0  0  0  0  0  0  0  0  0  0
   -1.6000   -0.0000    0.0000 C   0  0  0  0  0  0  0  0  0  0  0  0
   -3.2000   -0.0000    0.0000 H   0  0  0  0  0  0  0  0  0  0  0  0
   -2.4000   -1.3856    0.0000 H   0  0  0  0  0  0  0  0  0  0  0  0
   -2.4000    1.3856    0.0000 H   0  0  0  0  0  0  0  0  0  0  0  0
    0.0000    1.6000    0.0000 H   0  0  0  0  0  0  0  0  0  0  0  0
    0.0000   -1.6000    0.0000 H   0  0  0  0  0  0  0  0  0  0  0  0
    1.6000   -1.6000    0.0000 H   0  0  0  0  0  0  0  0  0  0  0  0
    1.6000    1.6000    0.0000 H   0  0  0  0  0  0  0  0  0  0  0  0
  1  2  1  0  0  0  0
  2  3  1  0  0  0  0
  1  4  1  0  0  0  0
  4  5  1  0  0  0  0
  5  6  1  0  0  0  0
  5  7  1  0  0  0  0
  5  8  1  0  0  0  0
  4  9  1  0  0  0  0
  4 10  1  0  0  0  0
  1 11  1  0  0  0  0
  1 12  1  0  0  0  0
M  END
> <CAS>
107-03-9

> <NAME>
1-PROPANETHIOL

> <preferred_name>
1-Propanethiol

> <iupac>
propane-1-thiol

> <SMILES>
CCCS

> <Canonical_QSARr>
CCCS

> <InChI_Code_QSARr>
InChI=1S/C3H8S/c1-2-3-4/h4H,2-3H2,1H3

> <InChI Key_QSARr>
SUVIGLJNEAMWEG-UHFFFAOYSA-N

> <Salt_Solvent>
?

> <WS Temperature>
25

> <WS Reference>
BEILSTEIN

> <dsstox_substance_id>
DTXSID5026750

> <LogMolar>
-1.6021

$$$$
107-07-3
  -INDIGO-01081615412D

  9  8  0  0  0  0  0  0  0  0999 V2000
    2.4000    1.3856    0.0000 Cl  0  0  0  0  0  0  0  0  0  0  0  0
    1.6000    0.0000    0.0000 C   0  0  0  0  0  0  0  0  0  0  0  0
   -0.0000    0.0000    0.0000 C   0  0  0  0  0  0  0  0  0  0  0  0
   -1.6000   -0.0000    0.0000 O   0  0  0  0  0  0  0  0  0  0  0  0
   -2.4000   -1.3856    0.0000 H   0  0  0  0  0  0  0  0  0  0  0  0
   -0.0000    1.6000    0.0000 H   0  0  0  0  0  0  0  0  0  0  0  0
   -0.0000   -1.6000    0.0000 H   0  0  0  0  0  0  0  0  0  0  0  0
    3.2000    0.0000    0.0000 H   0  0  0  0  0  0  0  0  0  0  0  0
    2.4000   -1.3856    0.0000 H   0  0  0  0  0  0  0  0  0  0  0  0
  1  2  1  0  0  0  0
  2  3  1  0  0  0  0
  3  4  1  0  0  0  0
  4  5  1  0  0  0  0
  3  6  1  0  0  0  0
  3  7  1  0  0  0  0
  2  8  1  0  0  0  0
  2  9  1  0  0  0  0
M  END
> <CAS>
107-07-3

> <NAME>
2-CHLOROETHANOL

> <preferred_name>
2-Chloroethanol

> <iupac>
2-chloroethanol

> <SMILES>
OCCCl

> <Canonical_QSARr>
OCCCl

> <InChI_Code_QSARr>
InChI=1S/C2H5ClO/c3-1-2-4/h4H,1-2H2

> <InChI Key_QSARr>
SZIFAVKTNFCBPC-UHFFFAOYSA-N

> <Salt_Solvent>
?

> <WS Temperature>
20

> <WS Reference>
YALKOWSKY,SH & DANNENFELSER,RM (1992)

> <dsstox_substance_id>
DTXSID1021877

> <LogMolar>
1.0941

$$$$
107-12-0
  -INDIGO-01081615412D

  9  8  0  0  0  0  0  0  0  0999 V2000
    1.6000    0.0000    0.0000 C   0  0  0  0  0  0  0  0  0  0  0  0
    0.0000    0.0000    0.0000 C   0  0  0  0  0  0  0  0  0  0  0  0
   -1.6000   -0.0000    0.0000 C   0  0  0  0  0  0  0  0  0  0  0  0
   -3.2000   -0.0000    0.0000 N   0  0  0  0  0  0  0  0  0  0  0  0
    0.0000    1.6000    0.0000 H   0  0  0  0  0  0  0  0  0  0  0  0
    0.0000   -1.6000    0.0000 H   0  0  0  0  0  0  0  0  0  0  0  0
    3.2000    0.0000    0.0000 H   0  0  0  0  0  0  0  0  0  0  0  0
    2.4000   -1.3856    0.0000 H   0  0  0  0  0  0  0  0  0  0  0  0
    2.4000    1.3856    0.0000 H   0  0  0  0  0  0  0  0  0  0  0  0
  1  2  1  0  0  0  0
  2  3  1  0  0  0  0
  3  4  3  0  0  0  0
  2  5  1  0  0  0  0
  2  6  1  0  0  0  0
  1  7  1  0  0  0  0
  1  8  1  0  0  0  0
  1  9  1  0  0  0  0
M  END
> <CAS>
107-12-0

> <NAME>
PROPIONITRILE

> <preferred_name>
Propionitrile

> <iupac>
propanenitrile

> <SMILES>
CCC#N

> <Canonical_QSARr>
CCC#N

> <InChI_Code_QSARr>
InChI=1S/C3H5N/c1-2-3-4/h2H2,1H3

> <InChI Key_QSARr>
FVSKHRXBFJPNKK-UHFFFAOYSA-N

> <Salt_Solvent>
?

> <WS Temperature>
25

> <WS Reference>
RIDDICK,JA ET AL. (1986)

> <dsstox_substance_id>
DTXSID1021879

> <LogMolar>
0.2718

$$$$
107-18-6
  -INDIGO-01081615412D

 10  9  0  0  0  0  0  0  0  0999 V2000
    2.7713   -0.0000    0.0000 C   0  0  0  0  0  0  0  0  0  0  0  0
    1.3856   -0.8000    0.0000 C   0  0  0  0  0  0  0  0  0  0  0  0
    0.0000   -0.0000    0.0000 C   0  0  0  0  0  0  0  0  0  0  0  0
   -1.3856    0.8000    0.0000 O   0  0  0  0  0  0  0  0  0  0  0  0
   -2.7713   -0.0000    0.0000 H   0  0  0  0  0  0  0  0  0  0  0  0
    0.8000    1.3856    0.0000 H   0  0  0  0  0  0  0  0  0  0  0  0
   -0.8000   -1.3856    0.0000 H   0  0  0  0  0  0  0  0  0  0  0  0
    1.3856   -2.4000    0.0000 H   0  0  0  0  0  0  0  0  0  0  0  0
    4.1569   -0.8000    0.0000 H   0  0  0  0  0  0  0  0  0  0  0  0
    2.7713    1.6000    0.0000 H   0  0  0  0  0  0  0  0  0  0  0  0
  1  2  2  0  0  0  0
  2  3  1  0  0  0  0
  3  4  1  0  0  0  0
  4  5  1  0  0  0  0
  3  6  1  0  0  0  0
  3  7  1  0  0  0  0
  2  8  1  0  0  0  0
  1  9  1  0  0  0  0
  1 10  1  0  0  0  0
M  END
> <CAS>
107-18-6

> <NAME>
ALLYL ALCOHOL

> <preferred_name>
Allyl alcohol

> <iupac>
prop-2-en-1-ol

> <SMILES>
C=CCO

> <Canonical_QSARr>
C=CCO

> <InChI_Code_QSARr>
InChI=1S/C3H6O/c1-2-3-4/h2,4H,1,3H2

> <InChI Key_QSARr>
XXROGKLTLUQVRX-UHFFFAOYSA-N

> <Salt_Solvent>
?

> <WS Temperature>
20

> <WS Reference>
YALKOWSKY,SH & DANNENFELSER,RM (1992)

> <dsstox_substance_id>
DTXSID8020044

> <LogMolar>
1.236

$$$$
107-25-5
  -INDIGO-01081615412D

 10  9  0  0  0  0  0  0  0  0999 V2000
    2.7713    0.0000    0.0000 C   0  0  0  0  0  0  0  0  0  0  0  0
    1.3856   -0.8000    0.0000 O   0  0  0  0  0  0  0  0  0  0  0  0
   -0.0000    0.0000    0.0000 C   0  0  0  0  0  0  0  0  0  0  0  0
   -1.3856    0.8000    0.0000 H   0  0  0  0  0  0  0  0  0  0  0  0
   -0.0000    1.6000    0.0000 H   0  0  0  0  0  0  0  0  0  0  0  0
   -1.3856   -0.8000    0.0000 H   0  0  0  0  0  0  0  0  0  0  0  0
    4.1569   -0.8000    0.0000 C   0  0  0  0  0  0  0  0  0  0  0  0
    5.5426    0.0000    0.0000 H   0  0  0  0  0  0  0  0  0  0  0  0
    4.1569   -2.4000    0.0000 H   0  0  0  0  0  0  0  0  0  0  0  0
    2.7713    1.6000    0.0000 H   0  0  0  0  0  0  0  0  0  0  0  0
  1  2  1  0  0  0  0
  2  3  1  0  0  0  0
  3  4  1  0  0  0  0
  3  5  1  0  0  0  0
  3  6  1  0  0  0  0
  1  7  2  0  0  0  0
  7  8  1  0  0  0  0
  7  9  1  0  0  0  0
  1 10  1  0  0  0  0
M  END
> <CAS>
107-25-5

> <NAME>
METHYLVINYLETHER

> <preferred_name>
Methoxyethene

> <iupac>
ethenyl methyl ether

> <SMILES>
COC=C

> <Canonical_QSARr>
COC=C

> <InChI_Code_QSARr>
InChI=1S/C3H6O/c1-3-4-2/h3H,1H2,2H3

> <InChI Key_QSARr>
XJRBAMWJDBPFIM-UHFFFAOYSA-N

> <Salt_Solvent>
?

> <WS Temperature>
20

> <WS Reference>
HORT,EV (1978)

> <dsstox_substance_id>
DTXSID4026761

> <LogMolar>
-0.5879

$$$$
107-41-5
  -INDIGO-01081615412D

 22 21  0  0  0  0  0  0  0  0999 V2000
    3.5543   -0.4091    0.0000 O   0  0  0  0  0  0  0  0  0  0  0  0
    3.0070    1.0944    0.0000 C   0  0  0  0  0  0  0  0  0  0  0  0
    4.5105    1.6417    0.0000 C   0  0  0  0  0  0  0  0  0  0  0  0
    6.0140    2.1889    0.0000 H   0  0  0  0  0  0  0  0  0  0  0  0
    5.7361    0.6132    0.0000 H   0  0  0  0  0  0  0  0  0  0  0  0
    4.7884    3.2174    0.0000 H   0  0  0  0  0  0  0  0  0  0  0  0
    1.5035    0.5472    0.0000 C   0  0  0  0  0  0  0  0  0  0  0  0
    0.0000    0.0000    0.0000 C   0  0  0  0  0  0  0  0  0  0  0  0
    0.8000   -1.3857    0.0000 O   0  0  0  0  0  0  0  0  0  0  0  0
    0.0000   -2.7713    0.0000 H   0  0  0  0  0  0  0  0  0  0  0  0
   -1.3857   -0.8000    0.0000 C   0  0  0  0  0  0  0  0  0  0  0  0
   -2.7713   -1.6000    0.0000 H   0  0  0  0  0  0  0  0  0  0  0  0
   -1.3857   -2.4000    0.0000 H   0  0  0  0  0  0  0  0  0  0  0  0
   -2.7713    0.0000    0.0000 H   0  0  0  0  0  0  0  0  0  0  0  0
   -0.8000    1.3857    0.0000 C   0  0  0  0  0  0  0  0  0  0  0  0
   -1.6000    2.7713    0.0000 H   0  0  0  0  0  0  0  0  0  0  0  0
   -2.3999    1.3857    0.0000 H   0  0  0  0  0  0  0  0  0  0  0  0
   -0.2528    2.8891    0.0000 H   0  0  0  0  0  0  0  0  0  0  0  0
    2.0507   -0.9563    0.0000 H   0  0  0  0  0  0  0  0  0  0  0  0
    0.9563    2.0507    0.0000 H   0  0  0  0  0  0  0  0  0  0  0  0
    2.4598    2.5980    0.0000 H   0  0  0  0  0  0  0  0  0  0  0  0
    5.1299   -0.6869    0.0000 H   0  0  0  0  0  0  0  0  0  0  0  0
  1  2  1  0  0  0  0
  2  3  1  0  0  0  0
  3  4  1  0  0  0  0
  3  5  1  0  0  0  0
  3  6  1  0  0  0  0
  2  7  1  0  0  0  0
  7  8  1  0  0  0  0
  8  9  1  0  0  0  0
  9 10  1  0  0  0  0
  8 11  1  0  0  0  0
 11 12  1  0  0  0  0
 11 13  1  0  0  0  0
 11 14  1  0  0  0  0
  8 15  1  0  0  0  0
 15 16  1  0  0  0  0
 15 17  1  0  0  0  0
 15 18  1  0  0  0  0
  7 19  1  0  0  0  0
  7 20  1  0  0  0  0
  2 21  1  0  0  0  0
  1 22  1  0  0  0  0
M  END
> <CAS>
107-41-5

> <NAME>
2-METHYL-2,4-PENTANEDIOL

> <preferred_name>
2-Methyl-2,4-pentanediol

> <iupac>
2-methylpentane-2,4-diol

> <SMILES>
CC(O)CC(C)(C)O

> <Canonical_QSARr>
CC(O)CC(C)(C)O

> <InChI_Code_QSARr>
InChI=1S/C6H14O2/c1-5(7)4-6(2,3)8/h5,7-8H,4H2,1-3H3

> <InChI Key_QSARr>
SVTBMSDMJJWYQN-UHFFFAOYSA-N

> <Salt_Solvent>
?

> <WS Temperature>


> <WS Reference>
RIDDICK,JA ET AL. (1986)

> <dsstox_substance_id>
DTXSID5021885

> <LogMolar>
0.9275

$$$$
107-49-3
  -INDIGO-01081615412D

 37 36  0  0  0  0  0  0  0  0999 V2000
    1.3856    0.8000    0.0000 O   0  0  0  0  0  0  0  0  0  0  0  0
    2.7713    0.0001    0.0000 P   0  0  0  0  0  0  0  0  0  0  0  0
    4.1570   -0.8001    0.0000 O   0  0  0  0  0  0  0  0  0  0  0  0
    4.1570   -2.4000    0.0000 C   0  0  0  0  0  0  0  0  0  0  0  0
    5.7569   -2.4000    0.0000 C   0  0  0  0  0  0  0  0  0  0  0  0
    7.3569   -2.4000    0.0000 H   0  0  0  0  0  0  0  0  0  0  0  0
    6.5570   -3.7857    0.0000 H   0  0  0  0  0  0  0  0  0  0  0  0
    6.5570   -1.0144    0.0000 H   0  0  0  0  0  0  0  0  0  0  0  0
    4.1570   -4.0000    0.0000 H   0  0  0  0  0  0  0  0  0  0  0  0
    2.5569   -2.4000    0.0000 H   0  0  0  0  0  0  0  0  0  0  0  0
    3.5712    1.3857    0.0000 O   0  0  0  0  0  0  0  0  0  0  0  0
    5.1713    1.3857    0.0000 C   0  0  0  0  0  0  0  0  0  0  0  0
    5.4492    2.9613    0.0000 C   0  0  0  0  0  0  0  0  0  0  0  0
    5.7269    4.5370    0.0000 H   0  0  0  0  0  0  0  0  0  0  0  0
    6.9526    3.5085    0.0000 H   0  0  0  0  0  0  0  0  0  0  0  0
    4.2235    3.9898    0.0000 H   0  0  0  0  0  0  0  0  0  0  0  0
    6.7713    1.3857    0.0000 H   0  0  0  0  0  0  0  0  0  0  0  0
    5.1713   -0.2144    0.0000 H   0  0  0  0  0  0  0  0  0  0  0  0
    1.9714   -1.3856    0.0000 O   0  0  0  0  0  0  0  0  0  0  0  0
    0.0001    0.0001    0.0000 P   0  0  0  0  0  0  0  0  0  0  0  0
   -1.3856   -0.8001    0.0000 O   0  0  0  0  0  0  0  0  0  0  0  0
   -2.7713    0.0001    0.0000 C   0  0  0  0  0  0  0  0  0  0  0  0
   -4.1569    0.8000    0.0000 C   0  0  0  0  0  0  0  0  0  0  0  0
   -5.5426    1.6000    0.0000 H   0  0  0  0  0  0  0  0  0  0  0  0
   -5.5426    0.0001    0.0000 H   0  0  0  0  0  0  0  0  0  0  0  0
   -4.1569    2.4000    0.0000 H   0  0  0  0  0  0  0  0  0  0  0  0
   -3.5713   -1.3856    0.0000 H   0  0  0  0  0  0  0  0  0  0  0  0
   -1.9712    1.3857    0.0000 H   0  0  0  0  0  0  0  0  0  0  0  0
   -0.8001    1.3857    0.0000 O   0  0  0  0  0  0  0  0  0  0  0  0
    0.0001    2.7713    0.0000 C   0  0  0  0  0  0  0  0  0  0  0  0
    0.8000    4.1569    0.0000 C   0  0  0  0  0  0  0  0  0  0  0  0
    1.5999    5.5426    0.0000 H   0  0  0  0  0  0  0  0  0  0  0  0
    0.0001    5.5426    0.0000 H   0  0  0  0  0  0  0  0  0  0  0  0
    2.4001    4.1569    0.0000 H   0  0  0  0  0  0  0  0  0  0  0  0
   -1.3856    3.5713    0.0000 H   0  0  0  0  0  0  0  0  0  0  0  0
    1.3856    1.9713    0.0000 H   0  0  0  0  0  0  0  0  0  0  0  0
    0.8000   -1.3856    0.0000 O   0  0  0  0  0  0  0  0  0  0  0  0
  1  2  1  0  0  0  0
  2  3  1  0  0  0  0
  3  4  1  0  0  0  0
  4  5  1  0  0  0  0
  5  6  1  0  0  0  0
  5  7  1  0  0  0  0
  5  8  1  0  0  0  0
  4  9  1  0  0  0  0
  4 10  1  0  0  0  0
  2 11  1  0  0  0  0
 11 12  1  0  0  0  0
 12 13  1  0  0  0  0
 13 14  1  0  0  0  0
 13 15  1  0  0  0  0
 13 16  1  0  0  0  0
 12 17  1  0  0  0  0
 12 18  1  0  0  0  0
  2 19  2  0  0  0  0
  1 20  1  0  0  0  0
 20 21  1  0  0  0  0
 21 22  1  0  0  0  0
 22 23  1  0  0  0  0
 23 24  1  0  0  0  0
 23 25  1  0  0  0  0
 23 26  1  0  0  0  0
 22 27  1  0  0  0  0
 22 28  1  0  0  0  0
 20 29  1  0  0  0  0
 29 30  1  0  0  0  0
 30 31  1  0  0  0  0
 31 32  1  0  0  0  0
 31 33  1  0  0  0  0
 31 34  1  0  0  0  0
 30 35  1  0  0  0  0
 30 36  1  0  0  0  0
 20 37  2  0  0  0  0
M  END
> <CAS>
107-49-3

> <NAME>
TETRAETHYL PYROPHOSPHATE

> <preferred_name>
Tetraethyl pyrophosphate

> <iupac>
tetraethyl diphosphate

> <SMILES>
CCOP(=O)(OP(=O)(OCC)OCC)OCC

> <Canonical_QSARr>
CCOP(=O)(OP(=O)(OCC)OCC)OCC

> <InChI_Code_QSARr>
InChI=1S/C8H20O7P2/c1-5-11-16(9,12-6-2)15-17(10,13-7-3)14-8-4/h5-8H2,1-4H3

> <InChI Key_QSARr>
IDCBOTIENDVCBQ-UHFFFAOYSA-N

> <Salt_Solvent>
?

> <WS Temperature>


> <WS Reference>
MERCK INDEX (1996)

> <dsstox_substance_id>
DTXSID3034957

> <LogMolar>
0.5373

$$$$
107-70-0
  -INDIGO-01081615412D

 23 22  0  0  0  0  0  0  0  0999 V2000
    1.6000   -0.0000    0.0000 C   0  0  0  0  0  0  0  0  0  0  0  0
    0.0000   -0.0000    0.0000 C   0  0  0  0  0  0  0  0  0  0  0  0
    0.0000   -1.6000    0.0000 O   0  0  0  0  0  0  0  0  0  0  0  0
   -1.3856   -2.4000    0.0000 C   0  0  0  0  0  0  0  0  0  0  0  0
   -1.3856   -4.0000    0.0000 H   0  0  0  0  0  0  0  0  0  0  0  0
   -2.7712   -3.2000    0.0000 H   0  0  0  0  0  0  0  0  0  0  0  0
    0.0000   -3.2000    0.0000 H   0  0  0  0  0  0  0  0  0  0  0  0
   -1.6001   -0.0000    0.0000 C   0  0  0  0  0  0  0  0  0  0  0  0
   -3.2000   -0.0000    0.0000 H   0  0  0  0  0  0  0  0  0  0  0  0
   -2.4000   -1.3857    0.0000 H   0  0  0  0  0  0  0  0  0  0  0  0
   -2.4000    1.3857    0.0000 H   0  0  0  0  0  0  0  0  0  0  0  0
    0.0000    1.6000    0.0000 C   0  0  0  0  0  0  0  0  0  0  0  0
    0.0000    3.2000    0.0000 H   0  0  0  0  0  0  0  0  0  0  0  0
   -1.3856    2.4000    0.0000 H   0  0  0  0  0  0  0  0  0  0  0  0
    1.2257    2.6285    0.0000 H   0  0  0  0  0  0  0  0  0  0  0  0
    3.2000   -0.0000    0.0000 C   0  0  0  0  0  0  0  0  0  0  0  0
    4.0001    1.3857    0.0000 O   0  0  0  0  0  0  0  0  0  0  0  0
    4.0001   -1.3857    0.0000 C   0  0  0  0  0  0  0  0  0  0  0  0
    4.8000   -2.7713    0.0000 H   0  0  0  0  0  0  0  0  0  0  0  0
    5.6000   -1.3857    0.0000 H   0  0  0  0  0  0  0  0  0  0  0  0
    3.2000   -2.7713    0.0000 H   0  0  0  0  0  0  0  0  0  0  0  0
    1.6000   -1.6000    0.0000 H   0  0  0  0  0  0  0  0  0  0  0  0
    1.8778    1.5756    0.0000 H   0  0  0  0  0  0  0  0  0  0  0  0
  1  2  1  0  0  0  0
  2  3  1  0  0  0  0
  3  4  1  0  0  0  0
  4  5  1  0  0  0  0
  4  6  1  0  0  0  0
  4  7  1  0  0  0  0
  2  8  1  0  0  0  0
  8  9  1  0  0  0  0
  8 10  1  0  0  0  0
  8 11  1  0  0  0  0
  2 12  1  0  0  0  0
 12 13  1  0  0  0  0
 12 14  1  0  0  0  0
 12 15  1  0  0  0  0
  1 16  1  0  0  0  0
 16 17  2  0  0  0  0
 16 18  1  0  0  0  0
 18 19  1  0  0  0  0
 18 20  1  0  0  0  0
 18 21  1  0  0  0  0
  1 22  1  0  0  0  0
  1 23  1  0  0  0  0
M  END
> <CAS>
107-70-0

> <NAME>
4-METHOXY-4-METHYL-2-PENTANONE

> <preferred_name>
4-Methoxy-4-methyl-2-pentanone

> <iupac>
4-methoxy-4-methylpentan-2-one

> <SMILES>
COC(C)(C)CC(C)=O

> <Canonical_QSARr>
COC(C)(C)CC(C)=O

> <InChI_Code_QSARr>
InChI=1S/C7H14O2/c1-6(8)5-7(2,3)9-4/h5H2,1-4H3

> <InChI Key_QSARr>
KOKPBCHLPVDQTK-UHFFFAOYSA-N

> <Salt_Solvent>
?

> <WS Temperature>
25

> <WS Reference>
NORTON,LC & SCHERZINGER,RA (1961)

> <dsstox_substance_id>
DTXSID2025557

> <LogMolar>
0.3326

$$$$
107-88-0
  -INDIGO-01081615412D

 16 15  0  0  0  0  0  0  0  0999 V2000
    3.2000    0.0000    0.0000 C   0  0  0  0  0  0  0  0  0  0  0  0
    4.8000    0.0000    0.0000 O   0  0  0  0  0  0  0  0  0  0  0  0
    5.6000   -1.3856    0.0000 H   0  0  0  0  0  0  0  0  0  0  0  0
    1.6000    0.0000    0.0000 C   0  0  0  0  0  0  0  0  0  0  0  0
    0.0000    0.0000    0.0000 C   0  0  0  0  0  0  0  0  0  0  0  0
    0.0000    1.6000    0.0000 O   0  0  0  0  0  0  0  0  0  0  0  0
   -1.3856    2.4000    0.0000 H   0  0  0  0  0  0  0  0  0  0  0  0
   -1.6001    0.0000    0.0000 C   0  0  0  0  0  0  0  0  0  0  0  0
   -3.2000    0.0000    0.0000 H   0  0  0  0  0  0  0  0  0  0  0  0
   -2.4000   -1.3856    0.0000 H   0  0  0  0  0  0  0  0  0  0  0  0
   -2.4000    1.3856    0.0000 H   0  0  0  0  0  0  0  0  0  0  0  0
    0.0000   -1.6000    0.0000 H   0  0  0  0  0  0  0  0  0  0  0  0
    1.6000   -1.6000    0.0000 H   0  0  0  0  0  0  0  0  0  0  0  0
    1.6000    1.6000    0.0000 H   0  0  0  0  0  0  0  0  0  0  0  0
    3.2000   -1.6000    0.0000 H   0  0  0  0  0  0  0  0  0  0  0  0
    3.2000    1.6000    0.0000 H   0  0  0  0  0  0  0  0  0  0  0  0
  1  2  1  0  0  0  0
  2  3  1  0  0  0  0
  1  4  1  0  0  0  0
  4  5  1  0  0  0  0
  5  6  1  0  0  0  0
  6  7  1  0  0  0  0
  5  8  1  0  0  0  0
  8  9  1  0  0  0  0
  8 10  1  0  0  0  0
  8 11  1  0  0  0  0
  5 12  1  0  0  0  0
  4 13  1  0  0  0  0
  4 14  1  0  0  0  0
  1 15  1  0  0  0  0
  1 16  1  0  0  0  0
M  END
> <CAS>
107-88-0

> <NAME>
1,3-BUTANEDIOL

> <preferred_name>
1,3-Butanediol

> <iupac>
butane-1,3-diol

> <SMILES>
CC(O)CCO

> <Canonical_QSARr>
CC(O)CCO

> <InChI_Code_QSARr>
InChI=1S/C4H10O2/c1-4(6)2-3-5/h4-6H,2-3H2,1H3

> <InChI Key_QSARr>
PUPZLCDOIYMWBV-UHFFFAOYSA-N

> <Salt_Solvent>
?

> <WS Temperature>
25

> <WS Reference>
RIDDICK,JA ET AL. (1986)

> <dsstox_substance_id>
DTXSID8026773

> <LogMolar>
1.0452

$$$$
107-93-7, 3724-65-0
  -INDIGO-01081615412D

 12 11  0  0  0  0  0  0  0  0999 V2000
   -2.7713   -0.0000    0.0000 C   0  0  0  0  0  0  0  0  0  0  0  0
   -2.7713   -1.6000    0.0000 O   0  0  0  0  0  0  0  0  0  0  0  0
   -4.1570    0.8000    0.0000 O   0  0  0  0  0  0  0  0  0  0  0  0
   -5.5426   -0.0000    0.0000 H   0  0  0  0  0  0  0  0  0  0  0  0
   -1.3857    0.8000    0.0000 C   0  0  0  0  0  0  0  0  0  0  0  0
    0.0000   -0.0000    0.0000 C   0  0  0  0  0  0  0  0  0  0  0  0
    1.3856    0.8000    0.0000 C   0  0  0  0  0  0  0  0  0  0  0  0
    2.7713    1.6000    0.0000 H   0  0  0  0  0  0  0  0  0  0  0  0
    2.7713   -0.0000    0.0000 H   0  0  0  0  0  0  0  0  0  0  0  0
    1.3856    2.4000    0.0000 H   0  0  0  0  0  0  0  0  0  0  0  0
    0.0000   -1.6000    0.0000 H   0  0  0  0  0  0  0  0  0  0  0  0
   -1.3857    2.4000    0.0000 H   0  0  0  0  0  0  0  0  0  0  0  0
  1  2  2  0  0  0  0
  1  3  1  0  0  0  0
  3  4  1  0  0  0  0
  1  5  1  0  0  0  0
  5  6  2  0  0  0  0
  6  7  1  0  0  0  0
  7  8  1  0  0  0  0
  7  9  1  0  0  0  0
  7 10  1  0  0  0  0
  6 11  1  0  0  0  0
  5 12  1  0  0  0  0
M  END
> <CAS>
107-93-7, 3724-65-0

> <NAME>
CROTONIC ACID

> <preferred_name>
2-Butenoic acid

> <iupac>
but-2-enoic acid

> <SMILES>
CC=CC(O)=O

> <Canonical_QSARr>
CC=CC(O)=O

> <InChI_Code_QSARr>
InChI=1S/C4H6O2/c1-2-3-4(5)6/h2-3H,1H3,(H,5,6)/b3-2+

> <InChI Key_QSARr>
LDHQCZJRKDOVOX-NSCUHMNNSA-N

> <Salt_Solvent>
?

> <WS Temperature>
25

> <WS Reference>
RIDDICK,JA ET AL. (1986)

> <dsstox_substance_id>
DTXSID7027544

> <LogMolar>
0.009425

$$$$
108-01-0
  -INDIGO-01081615412D

 17 16  0  0  0  0  0  0  0  0999 V2000
    2.4000   -1.3856    0.0000 C   0  0  0  0  0  0  0  0  0  0  0  0
    1.6001    0.0000    0.0000 N   0  0  0  0  0  0  0  0  0  0  0  0
    2.4000    1.3856    0.0000 C   0  0  0  0  0  0  0  0  0  0  0  0
    3.2001    2.7713    0.0000 H   0  0  0  0  0  0  0  0  0  0  0  0
    4.0000    1.3856    0.0000 H   0  0  0  0  0  0  0  0  0  0  0  0
    1.6001    2.7713    0.0000 H   0  0  0  0  0  0  0  0  0  0  0  0
    0.0001    0.0000    0.0000 C   0  0  0  0  0  0  0  0  0  0  0  0
   -1.5999   -0.0000    0.0000 C   0  0  0  0  0  0  0  0  0  0  0  0
   -3.2001   -0.0000    0.0000 O   0  0  0  0  0  0  0  0  0  0  0  0
   -4.0000   -1.3856    0.0000 H   0  0  0  0  0  0  0  0  0  0  0  0
   -1.5999   -1.6000    0.0000 H   0  0  0  0  0  0  0  0  0  0  0  0
   -1.5999    1.6000    0.0000 H   0  0  0  0  0  0  0  0  0  0  0  0
    0.0001    1.6000    0.0000 H   0  0  0  0  0  0  0  0  0  0  0  0
    0.0001   -1.6000    0.0000 H   0  0  0  0  0  0  0  0  0  0  0  0
    3.2001   -2.7713    0.0000 H   0  0  0  0  0  0  0  0  0  0  0  0
    4.0000   -1.3856    0.0000 H   0  0  0  0  0  0  0  0  0  0  0  0
    1.6001   -2.7713    0.0000 H   0  0  0  0  0  0  0  0  0  0  0  0
  1  2  1  0  0  0  0
  2  3  1  0  0  0  0
  3  4  1  0  0  0  0
  3  5  1  0  0  0  0
  3  6  1  0  0  0  0
  2  7  1  0  0  0  0
  7  8  1  0  0  0  0
  8  9  1  0  0  0  0
  9 10  1  0  0  0  0
  8 11  1  0  0  0  0
  8 12  1  0  0  0  0
  7 13  1  0  0  0  0
  7 14  1  0  0  0  0
  1 15  1  0  0  0  0
  1 16  1  0  0  0  0
  1 17  1  0  0  0  0
M  END
> <CAS>
108-01-0

> <NAME>
2-DIMETHYLAMINOETHANOL

> <preferred_name>
Dimethylaminoethanol

> <iupac>
2-(dimethylamino)ethanol

> <SMILES>
CN(C)CCO

> <Canonical_QSARr>
CN(C)CCO

> <InChI_Code_QSARr>
InChI=1S/C4H11NO/c1-5(2)3-4-6/h6H,3-4H2,1-2H3

> <InChI Key_QSARr>
UEEJHVSXFDXPFK-UHFFFAOYSA-N

> <Salt_Solvent>
?

> <WS Temperature>


> <WS Reference>
HANN,RWJR & JENSEN,PA (1977)

> <dsstox_substance_id>
DTXSID2020505

> <LogMolar>
1.0499

$$$$
108-10-1
  -INDIGO-01081615412D

 19 18  0  0  0  0  0  0  0  0999 V2000
    4.2327    0.0660    0.0000 C   0  0  0  0  0  0  0  0  0  0  0  0
    3.0071    1.0945    0.0000 C   0  0  0  0  0  0  0  0  0  0  0  0
    1.5036    0.5472    0.0000 C   0  0  0  0  0  0  0  0  0  0  0  0
    0.0000    0.0000    0.0000 C   0  0  0  0  0  0  0  0  0  0  0  0
   -1.3856   -0.8000    0.0000 C   0  0  0  0  0  0  0  0  0  0  0  0
   -2.7713   -1.6000    0.0000 H   0  0  0  0  0  0  0  0  0  0  0  0
   -1.3856   -2.4000    0.0000 H   0  0  0  0  0  0  0  0  0  0  0  0
   -2.7713    0.0000    0.0000 H   0  0  0  0  0  0  0  0  0  0  0  0
   -0.8000    1.3856    0.0000 C   0  0  0  0  0  0  0  0  0  0  0  0
   -1.6000    2.7713    0.0000 H   0  0  0  0  0  0  0  0  0  0  0  0
   -2.4000    1.3856    0.0000 H   0  0  0  0  0  0  0  0  0  0  0  0
    0.0000    2.7713    0.0000 H   0  0  0  0  0  0  0  0  0  0  0  0
    0.8000   -1.3856    0.0000 H   0  0  0  0  0  0  0  0  0  0  0  0
    2.0507   -0.9563    0.0000 H   0  0  0  0  0  0  0  0  0  0  0  0
    1.2256    2.1229    0.0000 H   0  0  0  0  0  0  0  0  0  0  0  0
    3.2849    2.6701    0.0000 O   0  0  0  0  0  0  0  0  0  0  0  0
    5.4584   -0.9624    0.0000 H   0  0  0  0  0  0  0  0  0  0  0  0
    5.7362    0.6132    0.0000 H   0  0  0  0  0  0  0  0  0  0  0  0
    3.9549   -1.5097    0.0000 H   0  0  0  0  0  0  0  0  0  0  0  0
  1  2  1  0  0  0  0
  2  3  1  0  0  0  0
  3  4  1  0  0  0  0
  4  5  1  0  0  0  0
  5  6  1  0  0  0  0
  5  7  1  0  0  0  0
  5  8  1  0  0  0  0
  4  9  1  0  0  0  0
  9 10  1  0  0  0  0
  9 11  1  0  0  0  0
  9 12  1  0  0  0  0
  4 13  1  0  0  0  0
  3 14  1  0  0  0  0
  3 15  1  0  0  0  0
  2 16  2  0  0  0  0
  1 17  1  0  0  0  0
  1 18  1  0  0  0  0
  1 19  1  0  0  0  0
M  END
> <CAS>
108-10-1

> <NAME>
4-METHYL-2-PENTANONE

> <preferred_name>
4-Methyl-2-pentanone

> <iupac>
4-methylpentan-2-one

> <SMILES>
CC(C)CC(C)=O

> <Canonical_QSARr>
CC(C)CC(C)=O

> <InChI_Code_QSARr>
InChI=1S/C6H12O/c1-5(2)4-6(3)7/h5H,4H2,1-3H3

> <InChI Key_QSARr>
NTIZESTWPVYFNL-UHFFFAOYSA-N

> <Salt_Solvent>
?

> <WS Temperature>
25

> <WS Reference>
YALKOWSKY,SH & DANNENFELSER,RM (1992)

> <dsstox_substance_id>
DTXSID5021889

> <LogMolar>
-0.7219

$$$$
108-28-1
  -INDIGO-01081615412D

 11 11  0  0  0  0  0  0  0  0999 V2000
   -0.8000    1.3856    0.0000 O   0  0  0  0  0  0  0  0  0  0  0  0
   -2.3650    1.0530    0.0000 C   0  0  0  0  0  0  0  0  0  0  0  0
   -3.5541    2.1236    0.0000 O   0  0  0  0  0  0  0  0  0  0  0  0
   -2.5322   -0.5383    0.0000 C   0  0  0  0  0  0  0  0  0  0  0  0
   -3.9179   -1.3382    0.0000 H   0  0  0  0  0  0  0  0  0  0  0  0
   -1.0706   -1.1891    0.0000 C   0  0  0  0  0  0  0  0  0  0  0  0
   -0.7379   -2.7541    0.0000 H   0  0  0  0  0  0  0  0  0  0  0  0
   -0.0000    0.0000    0.0000 C   0  0  0  0  0  0  0  0  0  0  0  0
    1.5912   -0.1672    0.0000 C   0  0  0  0  0  0  0  0  0  0  0  0
    2.5317    1.1272    0.0000 H   0  0  0  0  0  0  0  0  0  0  0  0
    2.2421   -1.6289    0.0000 H   0  0  0  0  0  0  0  0  0  0  0  0
  1  2  1  0  0  0  0
  2  3  2  0  0  0  0
  2  4  1  0  0  0  0
  4  5  1  0  0  0  0
  4  6  2  0  0  0  0
  6  7  1  0  0  0  0
  6  8  1  0  0  0  0
  8  1  1  0  0  0  0
  8  9  2  0  0  0  0
  9 10  1  0  0  0  0
  9 11  1  0  0  0  0
M  END
> <CAS>
108-28-1

> <NAME>
2(5H)-FURANONE, 5-METHYLENE-

> <preferred_name>
Protoanemonin

> <iupac>
5-methylidenefuran-2-one

> <SMILES>
C=C1C=CC(=O)O1

> <Canonical_QSARr>
C=C1C=CC(=O)O1

> <InChI_Code_QSARr>
InChI=1S/C5H4O2/c1-4-2-3-5(6)7-4/h2-3H,1H2

> <InChI Key_QSARr>
RNYZJZKPGHQTJR-UHFFFAOYSA-N

> <Salt_Solvent>
?

> <WS Temperature>


> <WS Reference>
MERCK INDEX (1989)

> <dsstox_substance_id>
DTXSID10148346

> <LogMolar>
-0.9827

$$$$
108-37-2
  -INDIGO-01081615412D

 12 12  0  0  0  0  0  0  0  0999 V2000
    0.0000   -0.0000    0.0000 C   0  0  0  0  0  0  0  0  0  0  0  0
   -0.8000   -1.3857    0.0000 C   0  0  0  0  0  0  0  0  0  0  0  0
   -2.4000   -1.3857    0.0000 Br  0  0  0  0  0  0  0  0  0  0  0  0
    0.0000   -2.7713    0.0000 C   0  0  0  0  0  0  0  0  0  0  0  0
   -0.8000   -4.1569    0.0000 H   0  0  0  0  0  0  0  0  0  0  0  0
    1.6000   -2.7713    0.0000 C   0  0  0  0  0  0  0  0  0  0  0  0
    2.4000   -4.1569    0.0000 H   0  0  0  0  0  0  0  0  0  0  0  0
    2.4000   -1.3857    0.0000 C   0  0  0  0  0  0  0  0  0  0  0  0
    4.0000   -1.3857    0.0000 H   0  0  0  0  0  0  0  0  0  0  0  0
    1.6000   -0.0000    0.0000 C   0  0  0  0  0  0  0  0  0  0  0  0
    2.4000    1.3856    0.0000 Cl  0  0  0  0  0  0  0  0  0  0  0  0
   -0.8000    1.3856    0.0000 H   0  0  0  0  0  0  0  0  0  0  0  0
  1  2  4  0  0  0  0
  2  3  1  0  0  0  0
  2  4  4  0  0  0  0
  4  5  1  0  0  0  0
  4  6  4  0  0  0  0
  6  7  1  0  0  0  0
  6  8  4  0  0  0  0
  8  9  1  0  0  0  0
  8 10  4  0  0  0  0
 10  1  4  0  0  0  0
 10 11  1  0  0  0  0
  1 12  1  0  0  0  0
M  END
> <CAS>
108-37-2

> <NAME>
M-BROMOCHLOROBENZENE

> <preferred_name>
Benzene, 1-bromo-3-chloro-

> <iupac>
1-Bromo-3-chlorobenzene

> <SMILES>
Clc1cc(Br)ccc1

> <Canonical_QSARr>
Clc1cc(Br)ccc1

> <InChI_Code_QSARr>
InChI=1S/C6H4BrCl/c7-5-2-1-3-6(8)4-5/h1-4H

> <InChI Key_QSARr>
JRGGUPZKKTVKOV-UHFFFAOYSA-N

> <Salt_Solvent>
?

> <WS Temperature>
25

> <WS Reference>
WAKITA,K ET AL. (1986)

> <dsstox_substance_id>
DTXSID6059360

> <LogMolar>
-3.2102

$$$$
108-42-9
  -INDIGO-01081615412D

 14 14  0  0  0  0  0  0  0  0999 V2000
    3.2000    2.7713    0.0000 Cl  0  0  0  0  0  0  0  0  0  0  0  0
    2.4000    1.3856    0.0000 C   0  0  0  0  0  0  0  0  0  0  0  0
    0.8000    1.3856    0.0000 C   0  0  0  0  0  0  0  0  0  0  0  0
    0.0000    2.7713    0.0000 H   0  0  0  0  0  0  0  0  0  0  0  0
    0.0000    0.0000    0.0000 C   0  0  0  0  0  0  0  0  0  0  0  0
   -1.6000    0.0000    0.0000 N   0  0  0  0  0  0  0  0  0  0  0  0
   -2.4000   -1.3856    0.0000 H   0  0  0  0  0  0  0  0  0  0  0  0
   -2.4000    1.3856    0.0000 H   0  0  0  0  0  0  0  0  0  0  0  0
    0.8000   -1.3856    0.0000 C   0  0  0  0  0  0  0  0  0  0  0  0
    0.0000   -2.7713    0.0000 H   0  0  0  0  0  0  0  0  0  0  0  0
    2.4000   -1.3856    0.0000 C   0  0  0  0  0  0  0  0  0  0  0  0
    3.2000   -2.7713    0.0000 H   0  0  0  0  0  0  0  0  0  0  0  0
    3.2000    0.0000    0.0000 C   0  0  0  0  0  0  0  0  0  0  0  0
    4.8000    0.0000    0.0000 H   0  0  0  0  0  0  0  0  0  0  0  0
  1  2  1  0  0  0  0
  2  3  4  0  0  0  0
  3  4  1  0  0  0  0
  3  5  4  0  0  0  0
  5  6  1  0  0  0  0
  6  7  1  0  0  0  0
  6  8  1  0  0  0  0
  5  9  4  0  0  0  0
  9 10  1  0  0  0  0
  9 11  4  0  0  0  0
 11 12  1  0  0  0  0
 11 13  4  0  0  0  0
 13  2  4  0  0  0  0
 13 14  1  0  0  0  0
M  END
> <CAS>
108-42-9

> <NAME>
3-CHLOROANILINE

> <preferred_name>
3-Chloroaniline

> <iupac>
3-chloroaniline

> <SMILES>
Nc1cc(Cl)ccc1

> <Canonical_QSARr>
Nc1cc(Cl)ccc1

> <InChI_Code_QSARr>
InChI=1S/C6H6ClN/c7-5-2-1-3-6(8)4-5/h1-4H,8H2

> <InChI Key_QSARr>
PNPCRKVUWYDDST-UHFFFAOYSA-N

> <Salt_Solvent>
?

> <WS Temperature>
20

> <WS Reference>
CHIOU,CT ET AL. (1982)

> <dsstox_substance_id>
DTXSID0024761

> <LogMolar>
-1.3734

$$$$
108-46-3
  -INDIGO-01081615412D

 14 14  0  0  0  0  0  0  0  0999 V2000
   -0.8000    1.3856    0.0000 O   0  0  0  0  0  0  0  0  0  0  0  0
    0.0000   -0.0000    0.0000 C   0  0  0  0  0  0  0  0  0  0  0  0
   -0.8000   -1.3857    0.0000 C   0  0  0  0  0  0  0  0  0  0  0  0
   -2.4000   -1.3857    0.0000 H   0  0  0  0  0  0  0  0  0  0  0  0
    0.0000   -2.7713    0.0000 C   0  0  0  0  0  0  0  0  0  0  0  0
   -0.8000   -4.1569    0.0000 H   0  0  0  0  0  0  0  0  0  0  0  0
    1.6000   -2.7713    0.0000 C   0  0  0  0  0  0  0  0  0  0  0  0
    2.4000   -4.1569    0.0000 H   0  0  0  0  0  0  0  0  0  0  0  0
    2.4000   -1.3857    0.0000 C   0  0  0  0  0  0  0  0  0  0  0  0
    4.0000   -1.3857    0.0000 O   0  0  0  0  0  0  0  0  0  0  0  0
    4.8000   -2.7713    0.0000 H   0  0  0  0  0  0  0  0  0  0  0  0
    1.6000   -0.0000    0.0000 C   0  0  0  0  0  0  0  0  0  0  0  0
    2.4000    1.3856    0.0000 H   0  0  0  0  0  0  0  0  0  0  0  0
   -2.4000    1.3856    0.0000 H   0  0  0  0  0  0  0  0  0  0  0  0
  1  2  1  0  0  0  0
  2  3  4  0  0  0  0
  3  4  1  0  0  0  0
  3  5  4  0  0  0  0
  5  6  1  0  0  0  0
  5  7  4  0  0  0  0
  7  8  1  0  0  0  0
  7  9  4  0  0  0  0
  9 10  1  0  0  0  0
 10 11  1  0  0  0  0
  9 12  4  0  0  0  0
 12  2  4  0  0  0  0
 12 13  1  0  0  0  0
  1 14  1  0  0  0  0
M  END
> <CAS>
108-46-3

> <NAME>
RESORCINOL

> <preferred_name>
Resorcinol

> <iupac>
benzene-1,3-diol

> <SMILES>
Oc1cc(O)ccc1

> <Canonical_QSARr>
Oc1cc(O)ccc1

> <InChI_Code_QSARr>
InChI=1S/C6H6O2/c7-5-2-1-3-6(8)4-5/h1-4,7-8H

> <InChI Key_QSARr>
GHMLBKRAJCXXBS-UHFFFAOYSA-N

> <Salt_Solvent>
?

> <WS Temperature>
25

> <WS Reference>
YALKOWSKY,SH & DANNENFELSER,RM (1992)

> <dsstox_substance_id>
DTXSID2021238

> <LogMolar>
0.8137

$$$$
108-62-3
  -INDIGO-01081615412D

 28 28  0  0  0  0  0  0  0  0999 V2000
    0.8000    1.3857    0.0000 O   0  0  0  0  0  0  0  0  0  0  0  0
    0.3859    2.9311    0.0000 C   0  0  0  0  0  0  0  0  0  0  0  0
    1.9615    3.2089    0.0000 C   0  0  0  0  0  0  0  0  0  0  0  0
    3.5373    3.4867    0.0000 H   0  0  0  0  0  0  0  0  0  0  0  0
    2.5089    4.7125    0.0000 H   0  0  0  0  0  0  0  0  0  0  0  0
    2.9901    1.9833    0.0000 H   0  0  0  0  0  0  0  0  0  0  0  0
    0.8000    4.4765    0.0000 H   0  0  0  0  0  0  0  0  0  0  0  0
   -0.9997    3.7312    0.0000 O   0  0  0  0  0  0  0  0  0  0  0  0
   -2.5452    3.3170    0.0000 C   0  0  0  0  0  0  0  0  0  0  0  0
   -4.0907    3.7312    0.0000 C   0  0  0  0  0  0  0  0  0  0  0  0
   -5.6362    4.1453    0.0000 H   0  0  0  0  0  0  0  0  0  0  0  0
   -4.5049    5.2766    0.0000 H   0  0  0  0  0  0  0  0  0  0  0  0
   -5.2221    2.5997    0.0000 H   0  0  0  0  0  0  0  0  0  0  0  0
   -2.5452    4.9171    0.0000 H   0  0  0  0  0  0  0  0  0  0  0  0
   -3.3452    1.9313    0.0000 O   0  0  0  0  0  0  0  0  0  0  0  0
   -2.9311    0.3859    0.0000 C   0  0  0  0  0  0  0  0  0  0  0  0
   -3.3452   -1.1596    0.0000 C   0  0  0  0  0  0  0  0  0  0  0  0
   -3.7594   -2.7051    0.0000 H   0  0  0  0  0  0  0  0  0  0  0  0
   -4.8907   -1.5737    0.0000 H   0  0  0  0  0  0  0  0  0  0  0  0
   -2.2139   -2.2910    0.0000 H   0  0  0  0  0  0  0  0  0  0  0  0
   -4.5311    0.3859    0.0000 H   0  0  0  0  0  0  0  0  0  0  0  0
   -1.5455   -0.4142    0.0000 O   0  0  0  0  0  0  0  0  0  0  0  0
    0.0000   -0.0001    0.0000 C   0  0  0  0  0  0  0  0  0  0  0  0
    1.4501   -0.6761    0.0000 C   0  0  0  0  0  0  0  0  0  0  0  0
    2.9002   -1.3523    0.0000 H   0  0  0  0  0  0  0  0  0  0  0  0
    1.5895   -2.2702    0.0000 H   0  0  0  0  0  0  0  0  0  0  0  0
    2.7607    0.2416    0.0000 H   0  0  0  0  0  0  0  0  0  0  0  0
    0.0000   -1.6000    0.0000 H   0  0  0  0  0  0  0  0  0  0  0  0
  1  2  1  0  0  0  0
  2  3  1  0  0  0  0
  3  4  1  0  0  0  0
  3  5  1  0  0  0  0
  3  6  1  0  0  0  0
  2  7  1  0  0  0  0
  2  8  1  0  0  0  0
  8  9  1  0  0  0  0
  9 10  1  0  0  0  0
 10 11  1  0  0  0  0
 10 12  1  0  0  0  0
 10 13  1  0  0  0  0
  9 14  1  0  0  0  0
  9 15  1  0  0  0  0
 15 16  1  0  0  0  0
 16 17  1  0  0  0  0
 17 18  1  0  0  0  0
 17 19  1  0  0  0  0
 17 20  1  0  0  0  0
 16 21  1  0  0  0  0
 16 22  1  0  0  0  0
 22 23  1  0  0  0  0
 23  1  1  0  0  0  0
 23 24  1  0  0  0  0
 24 25  1  0  0  0  0
 24 26  1  0  0  0  0
 24 27  1  0  0  0  0
 23 28  1  0  0  0  0
M  END
> <CAS>
108-62-3

> <NAME>
Metaldehyde (tetramer)

> <preferred_name>
Metaldehyde acetaldehyde tetramer

> <iupac>
2,4,6,8-tetramethyl-1,3,5,7-tetroxocane

> <SMILES>
CC1OC(C)OC(C)OC(C)O1

> <Canonical_QSARr>
CC1OC(C)OC(C)OC(C)O1

> <InChI_Code_QSARr>
InChI=1S/C8H16O4/c1-5-9-6(2)11-8(4)12-7(3)10-5/h5-8H,1-4H3

> <InChI Key_QSARr>
GKKDCARASOJPNG-UHFFFAOYSA-N

> <Salt_Solvent>
?

> <WS Temperature>
20

> <WS Reference>
TOMLIN,C (2003)

> <dsstox_substance_id>
DTXSID1034715

> <LogMolar>
-2.8997

$$$$
108-68-9
  -INDIGO-01081615412D

 19 19  0  0  0  0  0  0  0  0999 V2000
    1.6000    0.0000    0.0000 C   0  0  0  0  0  0  0  0  0  0  0  0
    0.0000    0.0000    0.0000 C   0  0  0  0  0  0  0  0  0  0  0  0
   -0.7999    1.3856    0.0000 C   0  0  0  0  0  0  0  0  0  0  0  0
    0.0000    2.7713    0.0000 H   0  0  0  0  0  0  0  0  0  0  0  0
   -2.3999    1.3856    0.0000 C   0  0  0  0  0  0  0  0  0  0  0  0
   -3.2000    2.7713    0.0000 O   0  0  0  0  0  0  0  0  0  0  0  0
   -4.8000    2.7713    0.0000 H   0  0  0  0  0  0  0  0  0  0  0  0
   -3.2000    0.0000    0.0000 C   0  0  0  0  0  0  0  0  0  0  0  0
   -4.8000    0.0000    0.0000 H   0  0  0  0  0  0  0  0  0  0  0  0
   -2.3999   -1.3856    0.0000 C   0  0  0  0  0  0  0  0  0  0  0  0
   -3.2000   -2.7713    0.0000 C   0  0  0  0  0  0  0  0  0  0  0  0
   -4.0001   -4.1569    0.0000 H   0  0  0  0  0  0  0  0  0  0  0  0
   -4.8000   -2.7713    0.0000 H   0  0  0  0  0  0  0  0  0  0  0  0
   -2.3999   -4.1569    0.0000 H   0  0  0  0  0  0  0  0  0  0  0  0
   -0.7999   -1.3856    0.0000 C   0  0  0  0  0  0  0  0  0  0  0  0
    0.0000   -2.7713    0.0000 H   0  0  0  0  0  0  0  0  0  0  0  0
    3.2000    0.0000    0.0000 H   0  0  0  0  0  0  0  0  0  0  0  0
    2.4001    1.3856    0.0000 H   0  0  0  0  0  0  0  0  0  0  0  0
    2.4001   -1.3856    0.0000 H   0  0  0  0  0  0  0  0  0  0  0  0
  1  2  1  0  0  0  0
  2  3  4  0  0  0  0
  3  4  1  0  0  0  0
  3  5  4  0  0  0  0
  5  6  1  0  0  0  0
  6  7  1  0  0  0  0
  5  8  4  0  0  0  0
  8  9  1  0  0  0  0
  8 10  4  0  0  0  0
 10 11  1  0  0  0  0
 11 12  1  0  0  0  0
 11 13  1  0  0  0  0
 11 14  1  0  0  0  0
 10 15  4  0  0  0  0
 15  2  4  0  0  0  0
 15 16  1  0  0  0  0
  1 17  1  0  0  0  0
  1 18  1  0  0  0  0
  1 19  1  0  0  0  0
M  END
> <CAS>
108-68-9

> <NAME>
3,5-DIMETHYLPHENOL

> <preferred_name>
3,5-Dimethylphenol

> <iupac>
3,5-dimethylphenol

> <SMILES>
Cc1cc(O)cc(C)c1

> <Canonical_QSARr>
Cc1cc(O)cc(C)c1

> <InChI_Code_QSARr>
InChI=1S/C8H10O/c1-6-3-7(2)5-8(9)4-6/h3-5,9H,1-2H3

> <InChI Key_QSARr>
TUAMRELNJMMDMT-UHFFFAOYSA-N

> <Salt_Solvent>
?

> <WS Temperature>
25

> <WS Reference>
YALKOWSKY,SH & DANNENFELSER,RM (1992)

> <dsstox_substance_id>
DTXSID1025148

> <LogMolar>
-1.3985

$$$$
108-78-1
  -INDIGO-01081615412D

 15 15  0  0  0  0  0  0  0  0999 V2000
    1.3857    0.8000    0.0000 N   0  0  0  0  0  0  0  0  0  0  0  0
    0.0000    0.0000    0.0000 C   0  0  0  0  0  0  0  0  0  0  0  0
   -1.3857    0.8000    0.0000 N   0  0  0  1  0  0  0  0  0  0  0  0
   -2.7713    0.0000    0.0000 C   0  0  0  0  0  0  0  0  0  0  0  0
   -4.1569    0.8000    0.0000 N   0  0  0  0  0  0  0  0  0  0  0  0
   -5.5426    0.0000    0.0000 H   0  0  0  0  0  0  0  0  0  0  0  0
   -4.1569    2.4000    0.0000 H   0  0  0  0  0  0  0  0  0  0  0  0
   -2.7713   -1.6000    0.0000 N   0  0  0  1  0  0  0  0  0  0  0  0
   -1.3856   -2.4000    0.0000 C   0  0  0  0  0  0  0  0  0  0  0  0
   -1.3856   -4.0000    0.0000 N   0  0  0  0  0  0  0  0  0  0  0  0
    0.0000   -4.8000    0.0000 H   0  0  0  0  0  0  0  0  0  0  0  0
   -2.7713   -4.8000    0.0000 H   0  0  0  0  0  0  0  0  0  0  0  0
    0.0000   -1.6000    0.0000 N   0  0  0  1  0  0  0  0  0  0  0  0
    2.7713    0.0000    0.0000 H   0  0  0  0  0  0  0  0  0  0  0  0
    1.3856    2.4000    0.0000 H   0  0  0  0  0  0  0  0  0  0  0  0
  1  2  1  0  0  0  0
  2  3  4  0  0  0  0
  3  4  4  0  0  0  0
  4  5  1  0  0  0  0
  5  6  1  0  0  0  0
  5  7  1  0  0  0  0
  4  8  4  0  0  0  0
  8  9  4  0  0  0  0
  9 10  1  0  0  0  0
 10 11  1  0  0  0  0
 10 12  1  0  0  0  0
  9 13  4  0  0  0  0
 13  2  4  0  0  0  0
  1 14  1  0  0  0  0
  1 15  1  0  0  0  0
M  END
> <CAS>
108-78-1

> <NAME>
MELAMINE

> <preferred_name>
Melamine

> <iupac>
1,3,5-triazine-2,4,6-triamine

> <SMILES>
Nc1[n]c(N)[n]c(N)[n]1

> <Canonical_QSARr>
Nc1[n]c(N)[n]c(N)[n]1

> <InChI_Code_QSARr>
InChI=1S/C3H6N6/c4-1-7-2(5)9-3(6)8-1/h(H6,4,5,6,7,8,9)

> <InChI Key_QSARr>
JDSHMPZPIAZGSV-UHFFFAOYSA-N

> <Salt_Solvent>
?

> <WS Temperature>
20

> <WS Reference>
YALKOWSKY,SH & HE,Y (2003)

> <dsstox_substance_id>
DTXSID6020802

> <LogMolar>
-1.5916

$$$$
108-84-9
  -INDIGO-01081615412D

 26 25  0  0  0  0  0  0  0  0999 V2000
   -5.0578    0.9563    0.0000 C   0  0  0  0  0  0  0  0  0  0  0  0
   -5.3356    2.5320    0.0000 C   0  0  0  0  0  0  0  0  0  0  0  0
   -5.6134    4.1077    0.0000 H   0  0  0  0  0  0  0  0  0  0  0  0
   -6.8391    3.0792    0.0000 H   0  0  0  0  0  0  0  0  0  0  0  0
   -4.1099    3.5605    0.0000 H   0  0  0  0  0  0  0  0  0  0  0  0
   -3.5543    0.4091    0.0000 O   0  0  0  0  0  0  0  0  0  0  0  0
   -3.0070   -1.0945    0.0000 C   0  0  0  0  0  0  0  0  0  0  0  0
   -4.3926   -1.8945    0.0000 C   0  0  0  0  0  0  0  0  0  0  0  0
   -5.7783   -2.6945    0.0000 H   0  0  0  0  0  0  0  0  0  0  0  0
   -5.7783   -1.0945    0.0000 H   0  0  0  0  0  0  0  0  0  0  0  0
   -4.3926   -3.4945    0.0000 H   0  0  0  0  0  0  0  0  0  0  0  0
   -1.5036   -0.5472    0.0000 C   0  0  0  0  0  0  0  0  0  0  0  0
   -0.0000   -0.0001    0.0000 C   0  0  0  0  0  0  0  0  0  0  0  0
    1.3856    0.8000    0.0000 C   0  0  0  0  0  0  0  0  0  0  0  0
    2.7713    1.6000    0.0000 H   0  0  0  0  0  0  0  0  0  0  0  0
    1.3856    2.4000    0.0000 H   0  0  0  0  0  0  0  0  0  0  0  0
    2.7713   -0.0001    0.0000 H   0  0  0  0  0  0  0  0  0  0  0  0
    0.7999   -1.3857    0.0000 C   0  0  0  0  0  0  0  0  0  0  0  0
    1.6000   -2.7713    0.0000 H   0  0  0  0  0  0  0  0  0  0  0  0
    2.4000   -1.3857    0.0000 H   0  0  0  0  0  0  0  0  0  0  0  0
    0.2528   -2.8892    0.0000 H   0  0  0  0  0  0  0  0  0  0  0  0
   -0.8000    1.3857    0.0000 H   0  0  0  0  0  0  0  0  0  0  0  0
   -2.0507    0.9563    0.0000 H   0  0  0  0  0  0  0  0  0  0  0  0
   -0.9563   -2.0507    0.0000 H   0  0  0  0  0  0  0  0  0  0  0  0
   -2.4598   -2.5980    0.0000 H   0  0  0  0  0  0  0  0  0  0  0  0
   -6.2835   -0.0722    0.0000 O   0  0  0  0  0  0  0  0  0  0  0  0
  1  2  1  0  0  0  0
  2  3  1  0  0  0  0
  2  4  1  0  0  0  0
  2  5  1  0  0  0  0
  1  6  1  0  0  0  0
  6  7  1  0  0  0  0
  7  8  1  0  0  0  0
  8  9  1  0  0  0  0
  8 10  1  0  0  0  0
  8 11  1  0  0  0  0
  7 12  1  0  0  0  0
 12 13  1  0  0  0  0
 13 14  1  0  0  0  0
 14 15  1  0  0  0  0
 14 16  1  0  0  0  0
 14 17  1  0  0  0  0
 13 18  1  0  0  0  0
 18 19  1  0  0  0  0
 18 20  1  0  0  0  0
 18 21  1  0  0  0  0
 13 22  1  0  0  0  0
 12 23  1  0  0  0  0
 12 24  1  0  0  0  0
  7 25  1  0  0  0  0
  1 26  2  0  0  0  0
M  END
> <CAS>
108-84-9

> <NAME>
4-METHYL-2-PENTYL ACETATE

> <preferred_name>
1,3-Dimethylbutyl acetate

> <iupac>
4-methylpentan-2-yl acetate

> <SMILES>
CC(C)CC(C)OC(C)=O

> <Canonical_QSARr>
CC(C)CC(C)OC(C)=O

> <InChI_Code_QSARr>
InChI=1S/C8H16O2/c1-6(2)5-7(3)10-8(4)9/h6-7H,5H2,1-4H3

> <InChI Key_QSARr>
CPIVYSAVIPTCCX-UHFFFAOYSA-N

> <Salt_Solvent>
?

> <WS Temperature>
20

> <WS Reference>
RIDDICK,JA ET AL. (1986)

> <dsstox_substance_id>
DTXSID6051562

> <LogMolar>
-2.0451

$$$$
108-88-3
  -INDIGO-01081615412D

 15 15  0  0  0  0  0  0  0  0999 V2000
    1.6000    0.0000    0.0000 C   0  0  0  0  0  0  0  0  0  0  0  0
    0.0000   -0.0000    0.0000 C   0  0  0  0  0  0  0  0  0  0  0  0
   -0.8001    1.3856    0.0000 C   0  0  0  0  0  0  0  0  0  0  0  0
    0.0000    2.7713    0.0000 H   0  0  0  0  0  0  0  0  0  0  0  0
   -2.4001    1.3856    0.0000 C   0  0  0  0  0  0  0  0  0  0  0  0
   -3.2000    2.7713    0.0000 H   0  0  0  0  0  0  0  0  0  0  0  0
   -3.2000   -0.0000    0.0000 C   0  0  0  0  0  0  0  0  0  0  0  0
   -4.8000   -0.0000    0.0000 H   0  0  0  0  0  0  0  0  0  0  0  0
   -2.4001   -1.3856    0.0000 C   0  0  0  0  0  0  0  0  0  0  0  0
   -3.2000   -2.7713    0.0000 H   0  0  0  0  0  0  0  0  0  0  0  0
   -0.8001   -1.3856    0.0000 C   0  0  0  0  0  0  0  0  0  0  0  0
    0.0000   -2.7713    0.0000 H   0  0  0  0  0  0  0  0  0  0  0  0
    3.2000    0.0000    0.0000 H   0  0  0  0  0  0  0  0  0  0  0  0
    2.4001    1.3856    0.0000 H   0  0  0  0  0  0  0  0  0  0  0  0
    2.4001   -1.3856    0.0000 H   0  0  0  0  0  0  0  0  0  0  0  0
  1  2  1  0  0  0  0
  2  3  4  0  0  0  0
  3  4  1  0  0  0  0
  3  5  4  0  0  0  0
  5  6  1  0  0  0  0
  5  7  4  0  0  0  0
  7  8  1  0  0  0  0
  7  9  4  0  0  0  0
  9 10  1  0  0  0  0
  9 11  4  0  0  0  0
 11  2  4  0  0  0  0
 11 12  1  0  0  0  0
  1 13  1  0  0  0  0
  1 14  1  0  0  0  0
  1 15  1  0  0  0  0
M  END
> <CAS>
108-88-3

> <NAME>
TOLUENE

> <preferred_name>
Toluene

> <iupac>
methylbenzene

> <SMILES>
Cc1ccccc1

> <Canonical_QSARr>
Cc1ccccc1

> <InChI_Code_QSARr>
InChI=1S/C7H8/c1-7-5-3-2-4-6-7/h2-6H,1H3

> <InChI Key_QSARr>
YXFVVABEGXRONW-UHFFFAOYSA-N

> <Salt_Solvent>
?

> <WS Temperature>
25

> <WS Reference>
SANEMASA,I ET AL. (1982)

> <dsstox_substance_id>
DTXSID7021360

> <LogMolar>
-2.2435

$$$$
108-99-6
  -INDIGO-01081615412D

 14 14  0  0  0  0  0  0  0  0999 V2000
   -1.3856    2.4000    0.0000 N   0  0  0  1  0  0  0  0  0  0  0  0
   -2.7713    1.6000    0.0000 C   0  0  0  0  0  0  0  0  0  0  0  0
   -4.1569    2.4000    0.0000 H   0  0  0  0  0  0  0  0  0  0  0  0
   -2.7713   -0.0000    0.0000 C   0  0  0  0  0  0  0  0  0  0  0  0
   -4.1569   -0.8000    0.0000 H   0  0  0  0  0  0  0  0  0  0  0  0
   -1.3856   -0.8000    0.0000 C   0  0  0  0  0  0  0  0  0  0  0  0
   -1.3856   -2.4000    0.0000 H   0  0  0  0  0  0  0  0  0  0  0  0
    0.0000    0.0000    0.0000 C   0  0  0  0  0  0  0  0  0  0  0  0
    1.3856   -0.8000    0.0000 C   0  0  0  0  0  0  0  0  0  0  0  0
    2.7713   -1.6000    0.0000 H   0  0  0  0  0  0  0  0  0  0  0  0
    2.7713    0.0000    0.0000 H   0  0  0  0  0  0  0  0  0  0  0  0
    1.3856   -2.4000    0.0000 H   0  0  0  0  0  0  0  0  0  0  0  0
    0.0000    1.6000    0.0000 C   0  0  0  0  0  0  0  0  0  0  0  0
    1.3856    2.4000    0.0000 H   0  0  0  0  0  0  0  0  0  0  0  0
  1  2  4  0  0  0  0
  2  3  1  0  0  0  0
  2  4  4  0  0  0  0
  4  5  1  0  0  0  0
  4  6  4  0  0  0  0
  6  7  1  0  0  0  0
  6  8  4  0  0  0  0
  8  9  1  0  0  0  0
  9 10  1  0  0  0  0
  9 11  1  0  0  0  0
  9 12  1  0  0  0  0
  8 13  4  0  0  0  0
 13  1  4  0  0  0  0
 13 14  1  0  0  0  0
M  END
> <CAS>
108-99-6

> <NAME>
3-METHYLPYRIDINE

> <preferred_name>
3-Methylpyridine

> <iupac>
3-methylpyridine

> <SMILES>
Cc1c[n]ccc1

> <Canonical_QSARr>
Cc1c[n]ccc1

> <InChI_Code_QSARr>
InChI=1S/C6H7N/c1-6-3-2-4-7-5-6/h2-5H,1H3

> <InChI Key_QSARr>
ITQTTZVARXURQS-UHFFFAOYSA-N

> <Salt_Solvent>
?

> <WS Temperature>
25

> <WS Reference>
KIRK-OTHMER; 4th ed, 20:644 (1996)

> <dsstox_substance_id>
DTXSID9021897

> <LogMolar>
1.0309

$$$$
109-06-8
  -INDIGO-01081615412D

 14 14  0  0  0  0  0  0  0  0999 V2000
   -0.7999    1.3856    0.0000 N   0  0  0  1  0  0  0  0  0  0  0  0
   -2.4001    1.3856    0.0000 C   0  0  0  0  0  0  0  0  0  0  0  0
   -3.2000    2.7713    0.0000 H   0  0  0  0  0  0  0  0  0  0  0  0
   -3.2000    0.0000    0.0000 C   0  0  0  0  0  0  0  0  0  0  0  0
   -4.8000    0.0000    0.0000 H   0  0  0  0  0  0  0  0  0  0  0  0
   -2.3999   -1.3856    0.0000 C   0  0  0  0  0  0  0  0  0  0  0  0
   -3.2000   -2.7713    0.0000 H   0  0  0  0  0  0  0  0  0  0  0  0
   -0.7999   -1.3856    0.0000 C   0  0  0  0  0  0  0  0  0  0  0  0
    0.0000   -2.7713    0.0000 H   0  0  0  0  0  0  0  0  0  0  0  0
    0.0000    0.0000    0.0000 C   0  0  0  0  0  0  0  0  0  0  0  0
    1.6000    0.0000    0.0000 C   0  0  0  0  0  0  0  0  0  0  0  0
    3.2000    0.0000    0.0000 H   0  0  0  0  0  0  0  0  0  0  0  0
    2.4001    1.3856    0.0000 H   0  0  0  0  0  0  0  0  0  0  0  0
    2.4001   -1.3856    0.0000 H   0  0  0  0  0  0  0  0  0  0  0  0
  1  2  4  0  0  0  0
  2  3  1  0  0  0  0
  2  4  4  0  0  0  0
  4  5  1  0  0  0  0
  4  6  4  0  0  0  0
  6  7  1  0  0  0  0
  6  8  4  0  0  0  0
  8  9  1  0  0  0  0
  8 10  4  0  0  0  0
 10  1  4  0  0  0  0
 10 11  1  0  0  0  0
 11 12  1  0  0  0  0
 11 13  1  0  0  0  0
 11 14  1  0  0  0  0
M  END
> <CAS>
109-06-8

> <NAME>
2-METHYLPYRIDINE

> <preferred_name>
2-Methylpyridine

> <iupac>
2-methylpyridine

> <SMILES>
Cc1cccc[n]1

> <Canonical_QSARr>
Cc1cccc[n]1

> <InChI_Code_QSARr>
InChI=1S/C6H7N/c1-6-4-2-3-5-7-6/h2-5H,1H3

> <InChI Key_QSARr>
BSKHPKMHTQYZBB-UHFFFAOYSA-N

> <Salt_Solvent>
?

> <WS Temperature>


> <WS Reference>
RIDDICK,JA ET AL. (1986)

> <dsstox_substance_id>
DTXSID9021899

> <LogMolar>
1.0309

$$$$
109-50-2
  -INDIGO-01081615412D

 17 16  0  0  0  0  0  0  0  0999 V2000
    1.6000   -0.0000    0.0000 C   0  0  0  0  0  0  0  0  0  0  0  0
    0.0000   -0.0000    0.0000 C   0  0  0  0  0  0  0  0  0  0  0  0
    0.0000    1.6000    0.0000 O   0  0  0  0  0  0  0  0  0  0  0  0
   -1.3856    2.4000    0.0000 H   0  0  0  0  0  0  0  0  0  0  0  0
   -1.5999   -0.0000    0.0000 C   0  0  0  0  0  0  0  0  0  0  0  0
   -3.2001   -0.0000    0.0000 C   0  0  0  0  0  0  0  0  0  0  0  0
   -4.8000   -0.0000    0.0000 C   0  0  0  0  0  0  0  0  0  0  0  0
   -6.4000   -0.0000    0.0000 C   0  0  0  0  0  0  0  0  0  0  0  0
   -8.0000   -0.0000    0.0000 H   0  0  0  0  0  0  0  0  0  0  0  0
   -7.2000   -1.3856    0.0000 H   0  0  0  0  0  0  0  0  0  0  0  0
   -7.2000    1.3856    0.0000 H   0  0  0  0  0  0  0  0  0  0  0  0
   -4.8000   -1.6000    0.0000 H   0  0  0  0  0  0  0  0  0  0  0  0
   -4.8000    1.6000    0.0000 H   0  0  0  0  0  0  0  0  0  0  0  0
    0.0000   -1.6000    0.0000 H   0  0  0  0  0  0  0  0  0  0  0  0
    3.2000   -0.0000    0.0000 H   0  0  0  0  0  0  0  0  0  0  0  0
    2.4000   -1.3856    0.0000 H   0  0  0  0  0  0  0  0  0  0  0  0
    2.4000    1.3856    0.0000 H   0  0  0  0  0  0  0  0  0  0  0  0
  1  2  1  0  0  0  0
  2  3  1  0  0  0  0
  3  4  1  0  0  0  0
  2  5  1  0  0  0  0
  5  6  3  0  0  0  0
  6  7  1  0  0  0  0
  7  8  1  0  0  0  0
  8  9  1  0  0  0  0
  8 10  1  0  0  0  0
  8 11  1  0  0  0  0
  7 12  1  0  0  0  0
  7 13  1  0  0  0  0
  2 14  1  0  0  0  0
  1 15  1  0  0  0  0
  1 16  1  0  0  0  0
  1 17  1  0  0  0  0
M  END
> <CAS>
109-50-2

> <NAME>
3-HEXYN-2-OL

> <preferred_name>


> <iupac>


> <SMILES>
CCC#CC(C)O

> <Canonical_QSARr>
CCC#CC(C)O

> <InChI_Code_QSARr>
InChI=1S/C6H10O/c1-3-4-5-6(2)7/h6-7H,3H2,1-2H3

> <InChI Key_QSARr>
IFCAMPHNVKBSTF-UHFFFAOYSA-N

> <Salt_Solvent>
?

> <WS Temperature>
20

> <WS Reference>
HORT,EV (1978)

> <dsstox_substance_id>


> <LogMolar>
-0.4121

$$$$
109-55-7
  -INDIGO-01081615412D

 21 20  0  0  0  0  0  0  0  0999 V2000
   -1.6000    0.0000    0.0000 N   0  0  0  0  0  0  0  0  0  0  0  0
   -2.3999   -1.3856    0.0000 C   0  0  0  0  0  0  0  0  0  0  0  0
   -3.2000   -2.7713    0.0000 H   0  0  0  0  0  0  0  0  0  0  0  0
   -4.0000   -1.3856    0.0000 H   0  0  0  0  0  0  0  0  0  0  0  0
   -1.6000   -2.7713    0.0000 H   0  0  0  0  0  0  0  0  0  0  0  0
   -2.4001    1.3856    0.0000 C   0  0  0  0  0  0  0  0  0  0  0  0
   -3.2000    2.7713    0.0000 H   0  0  0  0  0  0  0  0  0  0  0  0
   -4.0000    1.3856    0.0000 H   0  0  0  0  0  0  0  0  0  0  0  0
   -1.6000    2.7713    0.0000 H   0  0  0  0  0  0  0  0  0  0  0  0
   -0.0000    0.0000    0.0000 C   0  0  0  0  0  0  0  0  0  0  0  0
    1.6000    0.0000    0.0000 C   0  0  0  0  0  0  0  0  0  0  0  0
    3.2000    0.0000    0.0000 C   0  0  0  0  0  0  0  0  0  0  0  0
    4.8000    0.0000    0.0000 N   0  0  0  0  0  0  0  0  0  0  0  0
    5.6000   -1.3856    0.0000 H   0  0  0  0  0  0  0  0  0  0  0  0
    5.6000    1.3856    0.0000 H   0  0  0  0  0  0  0  0  0  0  0  0
    3.2000    1.6000    0.0000 H   0  0  0  0  0  0  0  0  0  0  0  0
    3.2000   -1.6000    0.0000 H   0  0  0  0  0  0  0  0  0  0  0  0
    1.6000   -1.6000    0.0000 H   0  0  0  0  0  0  0  0  0  0  0  0
    1.6000    1.6000    0.0000 H   0  0  0  0  0  0  0  0  0  0  0  0
   -0.0000    1.6000    0.0000 H   0  0  0  0  0  0  0  0  0  0  0  0
   -0.0000   -1.6000    0.0000 H   0  0  0  0  0  0  0  0  0  0  0  0
  1  2  1  0  0  0  0
  2  3  1  0  0  0  0
  2  4  1  0  0  0  0
  2  5  1  0  0  0  0
  1  6  1  0  0  0  0
  6  7  1  0  0  0  0
  6  8  1  0  0  0  0
  6  9  1  0  0  0  0
  1 10  1  0  0  0  0
 10 11  1  0  0  0  0
 11 12  1  0  0  0  0
 12 13  1  0  0  0  0
 13 14  1  0  0  0  0
 13 15  1  0  0  0  0
 12 16  1  0  0  0  0
 12 17  1  0  0  0  0
 11 18  1  0  0  0  0
 11 19  1  0  0  0  0
 10 20  1  0  0  0  0
 10 21  1  0  0  0  0
M  END
> <CAS>
109-55-7

> <NAME>
1,3-Propanediamine, N,N-dimethyl-

> <preferred_name>
3-(Dimethylamino)propylamine

> <iupac>
N,N-dimethylpropane-1,3-diamine

> <SMILES>
CN(C)CCCN

> <Canonical_QSARr>
CN(C)CCCN

> <InChI_Code_QSARr>
InChI=1S/C5H14N2/c1-7(2)5-3-4-6/h3-6H2,1-2H3

> <InChI Key_QSARr>
IUNMPGNGSSIWFP-UHFFFAOYSA-N

> <Salt_Solvent>
?

> <WS Temperature>
25

> <WS Reference>
NIH NTP Reports web-site

> <dsstox_substance_id>
DTXSID5025102

> <LogMolar>
0.9906

$$$$
109-64-8
  -INDIGO-01081615412D

 11 10  0  0  0  0  0  0  0  0999 V2000
    2.4000    1.3856    0.0000 Br  0  0  0  0  0  0  0  0  0  0  0  0
    1.6000    0.0000    0.0000 C   0  0  0  0  0  0  0  0  0  0  0  0
    0.0000    0.0000    0.0000 C   0  0  0  0  0  0  0  0  0  0  0  0
   -1.6000   -0.0000    0.0000 C   0  0  0  0  0  0  0  0  0  0  0  0
   -3.2000   -0.0000    0.0000 Br  0  0  0  0  0  0  0  0  0  0  0  0
   -2.4000   -1.3856    0.0000 H   0  0  0  0  0  0  0  0  0  0  0  0
   -2.4000    1.3856    0.0000 H   0  0  0  0  0  0  0  0  0  0  0  0
    0.0000    1.6000    0.0000 H   0  0  0  0  0  0  0  0  0  0  0  0
    0.0000   -1.6000    0.0000 H   0  0  0  0  0  0  0  0  0  0  0  0
    3.2000    0.0000    0.0000 H   0  0  0  0  0  0  0  0  0  0  0  0
    2.4000   -1.3856    0.0000 H   0  0  0  0  0  0  0  0  0  0  0  0
  1  2  1  0  0  0  0
  2  3  1  0  0  0  0
  3  4  1  0  0  0  0
  4  5  1  0  0  0  0
  4  6  1  0  0  0  0
  4  7  1  0  0  0  0
  3  8  1  0  0  0  0
  3  9  1  0  0  0  0
  2 10  1  0  0  0  0
  2 11  1  0  0  0  0
M  END
> <CAS>
109-64-8

> <NAME>
1,3-DIBROMOPROPANE

> <preferred_name>
1,3-Dibromopropane

> <iupac>
C3H6Br2

> <SMILES>
BrCCCBr

> <Canonical_QSARr>
BrCCCBr

> <InChI_Code_QSARr>
InChI=1S/C3H6Br2/c4-2-1-3-5/h1-3H2

> <InChI Key_QSARr>
VEFLKXRACNJHOV-UHFFFAOYSA-N

> <Salt_Solvent>
?

> <WS Temperature>
20

> <WS Reference>
YALKOWSKY,SH & HE,Y (2003)

> <dsstox_substance_id>
DTXSID1021902

> <LogMolar>
-2.0747

$$$$
109-68-2, 627-20-3, 646-04-8
  -INDIGO-01081615412D

 15 14  0  0  0  0  0  0  0  0999 V2000
   -1.6001   -0.0000    0.0000 C   0  0  0  0  0  0  0  0  0  0  0  0
    0.0000   -0.0000    0.0000 C   0  0  0  0  0  0  0  0  0  0  0  0
    1.6000   -0.0000    0.0000 C   0  0  0  0  0  0  0  0  0  0  0  0
    2.4000    1.3856    0.0000 C   0  0  0  0  0  0  0  0  0  0  0  0
    4.0001    1.3856    0.0000 C   0  0  0  0  0  0  0  0  0  0  0  0
    5.6000    1.3856    0.0000 H   0  0  0  0  0  0  0  0  0  0  0  0
    4.8000    2.7713    0.0000 H   0  0  0  0  0  0  0  0  0  0  0  0
    4.8000   -0.0000    0.0000 H   0  0  0  0  0  0  0  0  0  0  0  0
    1.6000    2.7713    0.0000 H   0  0  0  0  0  0  0  0  0  0  0  0
    2.4000   -1.3856    0.0000 H   0  0  0  0  0  0  0  0  0  0  0  0
    0.0000    1.6000    0.0000 H   0  0  0  0  0  0  0  0  0  0  0  0
    0.0000   -1.6000    0.0000 H   0  0  0  0  0  0  0  0  0  0  0  0
   -3.2000   -0.0000    0.0000 H   0  0  0  0  0  0  0  0  0  0  0  0
   -2.4000   -1.3856    0.0000 H   0  0  0  0  0  0  0  0  0  0  0  0
   -2.4000    1.3856    0.0000 H   0  0  0  0  0  0  0  0  0  0  0  0
  1  2  1  0  0  0  0
  2  3  1  0  0  0  0
  3  4  2  0  0  0  0
  4  5  1  0  0  0  0
  5  6  1  0  0  0  0
  5  7  1  0  0  0  0
  5  8  1  0  0  0  0
  4  9  1  0  0  0  0
  3 10  1  0  0  0  0
  2 11  1  0  0  0  0
  2 12  1  0  0  0  0
  1 13  1  0  0  0  0
  1 14  1  0  0  0  0
  1 15  1  0  0  0  0
M  END
> <CAS>
109-68-2, 627-20-3, 646-04-8

> <NAME>
2-PENTENE, CIS-2-PENTENE, TRANS-2-PENTENE

> <preferred_name>
2-Pentene

> <iupac>
?

> <SMILES>
CC=CCC

> <Canonical_QSARr>
CC=CCC

> <InChI_Code_QSARr>
InChI=1S/C5H10/c1-3-5-4-2/h3,5H,4H2,1-2H3/b5-3+

> <InChI Key_QSARr>
QMMOXUPEWRXHJS-HWKANZROSA-N

> <Salt_Solvent>
?

> <WS Temperature>
25

> <WS Reference>
YALKOWSKY,SH & DANNENFELSER,RM (1992)

> <dsstox_substance_id>
DTXSID5059375

> <LogMolar>
-2.5384

$$$$
109-74-0
  -INDIGO-01081615412D

 12 11  0  0  0  0  0  0  0  0999 V2000
    3.2000    0.0000    0.0000 C   0  0  0  0  0  0  0  0  0  0  0  0
    4.8000    0.0000    0.0000 N   0  0  0  0  0  0  0  0  0  0  0  0
    1.6000    0.0000    0.0000 C   0  0  0  0  0  0  0  0  0  0  0  0
    0.0000    0.0000    0.0000 C   0  0  0  0  0  0  0  0  0  0  0  0
   -1.6000   -0.0000    0.0000 C   0  0  0  0  0  0  0  0  0  0  0  0
   -3.2000   -0.0000    0.0000 H   0  0  0  0  0  0  0  0  0  0  0  0
   -2.4001   -1.3856    0.0000 H   0  0  0  0  0  0  0  0  0  0  0  0
   -2.4001    1.3856    0.0000 H   0  0  0  0  0  0  0  0  0  0  0  0
    0.0000    1.6000    0.0000 H   0  0  0  0  0  0  0  0  0  0  0  0
    0.0000   -1.6000    0.0000 H   0  0  0  0  0  0  0  0  0  0  0  0
    1.6000   -1.6000    0.0000 H   0  0  0  0  0  0  0  0  0  0  0  0
    1.6000    1.6000    0.0000 H   0  0  0  0  0  0  0  0  0  0  0  0
  1  2  3  0  0  0  0
  1  3  1  0  0  0  0
  3  4  1  0  0  0  0
  4  5  1  0  0  0  0
  5  6  1  0  0  0  0
  5  7  1  0  0  0  0
  5  8  1  0  0  0  0
  4  9  1  0  0  0  0
  4 10  1  0  0  0  0
  3 11  1  0  0  0  0
  3 12  1  0  0  0  0
M  END
> <CAS>
109-74-0

> <NAME>
BUTYRONITRILE

> <preferred_name>
Butanenitrile

> <iupac>
butanenitrile

> <SMILES>
CCCC#N

> <Canonical_QSARr>
CCCC#N

> <InChI_Code_QSARr>
InChI=1S/C4H7N/c1-2-3-4-5/h2-3H2,1H3

> <InChI Key_QSARr>
KVNRLNFWIYMESJ-UHFFFAOYSA-N

> <Salt_Solvent>
?

> <WS Temperature>
25

> <WS Reference>
RIDDICK,JA ET AL. (1986)

> <dsstox_substance_id>
DTXSID1026823

> <LogMolar>
-0.321

$$$$
109-83-1
  -INDIGO-01081615412D

 14 13  0  0  0  0  0  0  0  0999 V2000
   -0.0001    0.0000    0.0000 C   0  0  0  0  0  0  0  0  0  0  0  0
   -1.6001    0.0000    0.0000 N   0  0  0  0  0  0  0  0  0  0  0  0
   -2.4000   -1.3856    0.0000 C   0  0  0  0  0  0  0  0  0  0  0  0
   -3.2001   -2.7713    0.0000 H   0  0  0  0  0  0  0  0  0  0  0  0
   -4.0000   -1.3856    0.0000 H   0  0  0  0  0  0  0  0  0  0  0  0
   -1.5999   -2.7713    0.0000 H   0  0  0  0  0  0  0  0  0  0  0  0
   -2.4000    1.3856    0.0000 H   0  0  0  0  0  0  0  0  0  0  0  0
    1.6001    0.0000    0.0000 C   0  0  0  0  0  0  0  0  0  0  0  0
    3.2001    0.0000    0.0000 O   0  0  0  0  0  0  0  0  0  0  0  0
    4.0000    1.3856    0.0000 H   0  0  0  0  0  0  0  0  0  0  0  0
    1.6001   -1.6000    0.0000 H   0  0  0  0  0  0  0  0  0  0  0  0
    1.5999    1.6000    0.0000 H   0  0  0  0  0  0  0  0  0  0  0  0
   -0.0001    1.6000    0.0000 H   0  0  0  0  0  0  0  0  0  0  0  0
   -0.0001   -1.6000    0.0000 H   0  0  0  0  0  0  0  0  0  0  0  0
  1  2  1  0  0  0  0
  2  3  1  0  0  0  0
  3  4  1  0  0  0  0
  3  5  1  0  0  0  0
  3  6  1  0  0  0  0
  2  7  1  0  0  0  0
  1  8  1  0  0  0  0
  8  9  1  0  0  0  0
  9 10  1  0  0  0  0
  8 11  1  0  0  0  0
  8 12  1  0  0  0  0
  1 13  1  0  0  0  0
  1 14  1  0  0  0  0
M  END
> <CAS>
109-83-1

> <NAME>
2-(METHYLAMINO)ETHANOL

> <preferred_name>
N-Methylethanolamine

> <iupac>
2-(methylamino)ethanol

> <SMILES>
CNCCO

> <Canonical_QSARr>
CNCCO

> <InChI_Code_QSARr>
InChI=1S/C3H9NO/c1-4-2-3-5/h4-5H,2-3H2,1H3

> <InChI Key_QSARr>
OPKOKAMJFNKNAS-UHFFFAOYSA-N

> <Salt_Solvent>
?

> <WS Temperature>
25

> <WS Reference>
KIRK-OTHMER; 4th ed, 2:3 (1992)

> <dsstox_substance_id>
DTXSID5025603

> <LogMolar>
1.1243

$$$$
109-89-7
  -INDIGO-01081615412D

 16 15  0  0  0  0  0  0  0  0999 V2000
   -1.3856    0.8000    0.0000 C   0  0  0  0  0  0  0  0  0  0  0  0
    0.0000    0.0000    0.0000 C   0  0  0  0  0  0  0  0  0  0  0  0
    1.3857   -0.8000    0.0000 N   0  0  0  0  0  0  0  0  0  0  0  0
    2.7713    0.0000    0.0000 C   0  0  0  0  0  0  0  0  0  0  0  0
    4.1570    0.8000    0.0000 C   0  0  0  0  0  0  0  0  0  0  0  0
    5.5426    1.6000    0.0000 H   0  0  0  0  0  0  0  0  0  0  0  0
    5.5426    0.0000    0.0000 H   0  0  0  0  0  0  0  0  0  0  0  0
    4.1570    2.4000    0.0000 H   0  0  0  0  0  0  0  0  0  0  0  0
    3.5713   -1.3857    0.0000 H   0  0  0  0  0  0  0  0  0  0  0  0
    1.9713    1.3857    0.0000 H   0  0  0  0  0  0  0  0  0  0  0  0
    1.3857   -2.4000    0.0000 H   0  0  0  0  0  0  0  0  0  0  0  0
    0.8000    1.3857    0.0000 H   0  0  0  0  0  0  0  0  0  0  0  0
   -0.8000   -1.3857    0.0000 H   0  0  0  0  0  0  0  0  0  0  0  0
   -2.7713    1.6000    0.0000 H   0  0  0  0  0  0  0  0  0  0  0  0
   -2.7713    0.0000    0.0000 H   0  0  0  0  0  0  0  0  0  0  0  0
   -1.3857    2.4000    0.0000 H   0  0  0  0  0  0  0  0  0  0  0  0
  1  2  1  0  0  0  0
  2  3  1  0  0  0  0
  3  4  1  0  0  0  0
  4  5  1  0  0  0  0
  5  6  1  0  0  0  0
  5  7  1  0  0  0  0
  5  8  1  0  0  0  0
  4  9  1  0  0  0  0
  4 10  1  0  0  0  0
  3 11  1  0  0  0  0
  2 12  1  0  0  0  0
  2 13  1  0  0  0  0
  1 14  1  0  0  0  0
  1 15  1  0  0  0  0
  1 16  1  0  0  0  0
M  END
> <CAS>
109-89-7

> <NAME>
DIETHYLAMINE

> <preferred_name>
Diethylamine

> <iupac>
N-ethylethanamine

> <SMILES>
CCNCC

> <Canonical_QSARr>
CCNCC

> <InChI_Code_QSARr>
InChI=1S/C4H11N/c1-3-5-4-2/h5H,3-4H2,1-2H3

> <InChI Key_QSARr>
HPNMFZURTQLUMO-UHFFFAOYSA-N

> <Salt_Solvent>
?

> <WS Temperature>
25

> <WS Reference>
RIDDICK,JA ET AL. (1986)

> <dsstox_substance_id>
DTXSID6021909

> <LogMolar>
1.1359

$$$$
109-97-7
  -INDIGO-01081615412D

 10 10  0  0  0  0  0  0  0  0999 V2000
    0.0000   -0.0000    0.0000 N   0  0  0  1  0  0  0  0  0  0  0  0
   -0.4944   -1.5217    0.0000 C   0  0  0  0  0  0  0  0  0  0  0  0
   -2.0161   -2.0161    0.0000 H   0  0  0  0  0  0  0  0  0  0  0  0
    0.8000   -2.4622    0.0000 C   0  0  0  0  0  0  0  0  0  0  0  0
    0.8000   -4.0621    0.0000 H   0  0  0  0  0  0  0  0  0  0  0  0
    2.0944   -1.5217    0.0000 C   0  0  0  0  0  0  0  0  0  0  0  0
    3.6161   -2.0161    0.0000 H   0  0  0  0  0  0  0  0  0  0  0  0
    1.6000   -0.0000    0.0000 C   0  0  0  0  0  0  0  0  0  0  0  0
    2.5405    1.2944    0.0000 H   0  0  0  0  0  0  0  0  0  0  0  0
   -0.9405    1.2944    0.0000 H   0  0  0  0  0  0  0  0  0  0  0  0
  1  2  4  0  0  0  0
  2  3  1  0  0  0  0
  2  4  4  0  0  0  0
  4  5  1  0  0  0  0
  4  6  4  0  0  0  0
  6  7  1  0  0  0  0
  6  8  4  0  0  0  0
  8  1  4  0  0  0  0
  8  9  1  0  0  0  0
  1 10  1  0  0  0  0
M  END
> <CAS>
109-97-7

> <NAME>
PYRROLE

> <preferred_name>
Pyrrole

> <iupac>
1H-pyrrole

> <SMILES>
c1ccc[nH]1

> <Canonical_QSARr>
c1ccc[nH]1

> <InChI_Code_QSARr>
InChI=1S/C4H5N/c1-2-4-5-3-1/h1-5H

> <InChI Key_QSARr>
KAESVJOAVNADME-UHFFFAOYSA-N

> <Salt_Solvent>
?

> <WS Temperature>
25

> <WS Reference>
RIDDICK,JA ET AL. (1986)

> <dsstox_substance_id>
DTXSID5021910

> <LogMolar>
-0.1734

$$$$
110-05-4
  -INDIGO-01081615412D

 28 27  0  0  0  0  0  0  0  0999 V2000
   -2.7713   -0.0000    0.0000 O   0  0  0  0  0  0  0  0  0  0  0  0
   -4.1570    0.8000    0.0000 C   0  0  0  0  0  0  0  0  0  0  0  0
   -5.5426    1.6000    0.0000 C   0  0  0  0  0  0  0  0  0  0  0  0
   -6.9282    2.4000    0.0000 H   0  0  0  0  0  0  0  0  0  0  0  0
   -6.9282    0.8000    0.0000 H   0  0  0  0  0  0  0  0  0  0  0  0
   -5.5426    3.2000    0.0000 H   0  0  0  0  0  0  0  0  0  0  0  0
   -4.9569   -0.5857    0.0000 C   0  0  0  0  0  0  0  0  0  0  0  0
   -5.7569   -1.9713    0.0000 H   0  0  0  0  0  0  0  0  0  0  0  0
   -6.5569   -0.5857    0.0000 H   0  0  0  0  0  0  0  0  0  0  0  0
   -4.1570   -1.9713    0.0000 H   0  0  0  0  0  0  0  0  0  0  0  0
   -3.3569    2.1857    0.0000 C   0  0  0  0  0  0  0  0  0  0  0  0
   -2.5569    3.5713    0.0000 H   0  0  0  0  0  0  0  0  0  0  0  0
   -4.1570    3.5713    0.0000 H   0  0  0  0  0  0  0  0  0  0  0  0
   -1.7569    2.1857    0.0000 H   0  0  0  0  0  0  0  0  0  0  0  0
   -1.3856    0.8000    0.0000 O   0  0  0  0  0  0  0  0  0  0  0  0
    0.0000   -0.0000    0.0000 C   0  0  0  0  0  0  0  0  0  0  0  0
    0.8000    1.3857    0.0000 C   0  0  0  0  0  0  0  0  0  0  0  0
    1.6000    2.7713    0.0000 H   0  0  0  0  0  0  0  0  0  0  0  0
    0.0000    2.7713    0.0000 H   0  0  0  0  0  0  0  0  0  0  0  0
    2.3999    1.3857    0.0000 H   0  0  0  0  0  0  0  0  0  0  0  0
    1.3857   -0.8000    0.0000 C   0  0  0  0  0  0  0  0  0  0  0  0
    2.7713   -1.6000    0.0000 H   0  0  0  0  0  0  0  0  0  0  0  0
    1.3857   -2.4000    0.0000 H   0  0  0  0  0  0  0  0  0  0  0  0
    2.7713   -0.0000    0.0000 H   0  0  0  0  0  0  0  0  0  0  0  0
   -0.8001   -1.3857    0.0000 C   0  0  0  0  0  0  0  0  0  0  0  0
   -1.6000   -2.7713    0.0000 H   0  0  0  0  0  0  0  0  0  0  0  0
   -2.4000   -1.3857    0.0000 H   0  0  0  0  0  0  0  0  0  0  0  0
    0.0000   -2.7713    0.0000 H   0  0  0  0  0  0  0  0  0  0  0  0
  1  2  1  0  0  0  0
  2  3  1  0  0  0  0
  3  4  1  0  0  0  0
  3  5  1  0  0  0  0
  3  6  1  0  0  0  0
  2  7  1  0  0  0  0
  7  8  1  0  0  0  0
  7  9  1  0  0  0  0
  7 10  1  0  0  0  0
  2 11  1  0  0  0  0
 11 12  1  0  0  0  0
 11 13  1  0  0  0  0
 11 14  1  0  0  0  0
  1 15  1  0  0  0  0
 15 16  1  0  0  0  0
 16 17  1  0  0  0  0
 17 18  1  0  0  0  0
 17 19  1  0  0  0  0
 17 20  1  0  0  0  0
 16 21  1  0  0  0  0
 21 22  1  0  0  0  0
 21 23  1  0  0  0  0
 21 24  1  0  0  0  0
 16 25  1  0  0  0  0
 25 26  1  0  0  0  0
 25 27  1  0  0  0  0
 25 28  1  0  0  0  0
M  END
> <CAS>
110-05-4

> <NAME>
T-BUTYL-PEROXIDE

> <preferred_name>
Di-tert-butyl peroxide

> <iupac>
2-(tert-butylperoxy)-2-methylpropane

> <SMILES>
CC(C)(C)OOC(C)(C)C

> <Canonical_QSARr>
CC(C)(C)OOC(C)(C)C

> <InChI_Code_QSARr>
InChI=1S/C8H18O2/c1-7(2,3)9-10-8(4,5)6/h1-6H3

> <InChI Key_QSARr>
LSXWFXONGKSEMY-UHFFFAOYSA-N

> <Salt_Solvent>
?

> <WS Temperature>


> <WS Reference>
MERCK INDEX (1996)

> <dsstox_substance_id>
DTXSID2024955

> <LogMolar>
-3.165

$$$$
110-19-0
  -INDIGO-01081615412D

 20 19  0  0  0  0  0  0  0  0999 V2000
    4.2327    0.0660    0.0000 C   0  0  0  0  0  0  0  0  0  0  0  0
    5.7363    0.6132    0.0000 C   0  0  0  0  0  0  0  0  0  0  0  0
    7.2397    1.1604    0.0000 H   0  0  0  0  0  0  0  0  0  0  0  0
    6.9618   -0.4152    0.0000 H   0  0  0  0  0  0  0  0  0  0  0  0
    6.0140    2.1889    0.0000 H   0  0  0  0  0  0  0  0  0  0  0  0
    3.0071    1.0945    0.0000 O   0  0  0  0  0  0  0  0  0  0  0  0
    1.5035    0.5472    0.0000 C   0  0  0  0  0  0  0  0  0  0  0  0
    0.0001    0.0000    0.0000 C   0  0  0  0  0  0  0  0  0  0  0  0
   -1.3856   -0.8000    0.0000 C   0  0  0  0  0  0  0  0  0  0  0  0
   -2.7713   -1.6000    0.0000 H   0  0  0  0  0  0  0  0  0  0  0  0
   -1.3856   -2.4000    0.0000 H   0  0  0  0  0  0  0  0  0  0  0  0
   -2.7713    0.0000    0.0000 H   0  0  0  0  0  0  0  0  0  0  0  0
   -0.7999    1.3856    0.0000 C   0  0  0  0  0  0  0  0  0  0  0  0
   -1.5999    2.7713    0.0000 H   0  0  0  0  0  0  0  0  0  0  0  0
   -2.3999    1.3856    0.0000 H   0  0  0  0  0  0  0  0  0  0  0  0
    0.0001    2.7713    0.0000 H   0  0  0  0  0  0  0  0  0  0  0  0
    0.8000   -1.3856    0.0000 H   0  0  0  0  0  0  0  0  0  0  0  0
    2.0507   -0.9563    0.0000 H   0  0  0  0  0  0  0  0  0  0  0  0
    1.2256    2.1229    0.0000 H   0  0  0  0  0  0  0  0  0  0  0  0
    3.9548   -1.5097    0.0000 O   0  0  0  0  0  0  0  0  0  0  0  0
  1  2  1  0  0  0  0
  2  3  1  0  0  0  0
  2  4  1  0  0  0  0
  2  5  1  0  0  0  0
  1  6  1  0  0  0  0
  6  7  1  0  0  0  0
  7  8  1  0  0  0  0
  8  9  1  0  0  0  0
  9 10  1  0  0  0  0
  9 11  1  0  0  0  0
  9 12  1  0  0  0  0
  8 13  1  0  0  0  0
 13 14  1  0  0  0  0
 13 15  1  0  0  0  0
 13 16  1  0  0  0  0
  8 17  1  0  0  0  0
  7 18  1  0  0  0  0
  7 19  1  0  0  0  0
  1 20  2  0  0  0  0
M  END
> <CAS>
110-19-0

> <NAME>
SEC-BUTYLACETATE

> <preferred_name>
Isobutyl acetate

> <iupac>
2-methylpropyl acetate

> <SMILES>
CC(C)COC(C)=O

> <Canonical_QSARr>
CC(C)COC(C)=O

> <InChI_Code_QSARr>
InChI=1S/C6H12O2/c1-5(2)4-8-6(3)7/h5H,4H2,1-3H3

> <InChI Key_QSARr>
GJRQTCIYDGXPES-UHFFFAOYSA-N

> <Salt_Solvent>
?

> <WS Temperature>
25

> <WS Reference>
YALKOWSKY,SH & DANNENFELSER,RM (1992)

> <dsstox_substance_id>
DTXSID5026837

> <LogMolar>
-1.2657

$$$$
110-42-9
  -INDIGO-01081615412D

 35 34  0  0  0  0  0  0  0  0999 V2000
    8.0000   -0.0000    0.0000 C   0  0  0  0  0  0  0  0  0  0  0  0
    8.7999   -1.3856    0.0000 O   0  0  0  0  0  0  0  0  0  0  0  0
    8.7999    1.3856    0.0000 O   0  0  0  0  0  0  0  0  0  0  0  0
   10.3999    1.3856    0.0000 C   0  0  0  0  0  0  0  0  0  0  0  0
   12.0000    1.3856    0.0000 H   0  0  0  0  0  0  0  0  0  0  0  0
   11.2001    2.7713    0.0000 H   0  0  0  0  0  0  0  0  0  0  0  0
   11.2001   -0.0000    0.0000 H   0  0  0  0  0  0  0  0  0  0  0  0
    6.3999   -0.0000    0.0000 C   0  0  0  0  0  0  0  0  0  0  0  0
    4.7999   -0.0000    0.0000 C   0  0  0  0  0  0  0  0  0  0  0  0
    3.2001   -0.0000    0.0000 C   0  0  0  0  0  0  0  0  0  0  0  0
    1.6001   -0.0000    0.0000 C   0  0  0  0  0  0  0  0  0  0  0  0
    0.0000   -0.0000    0.0000 C   0  0  0  0  0  0  0  0  0  0  0  0
   -1.6001   -0.0000    0.0000 C   0  0  0  0  0  0  0  0  0  0  0  0
   -3.2001   -0.0000    0.0000 C   0  0  0  0  0  0  0  0  0  0  0  0
   -4.7999   -0.0000    0.0000 C   0  0  0  0  0  0  0  0  0  0  0  0
   -6.3999   -0.0000    0.0000 C   0  0  0  0  0  0  0  0  0  0  0  0
   -8.0000   -0.0000    0.0000 H   0  0  0  0  0  0  0  0  0  0  0  0
   -7.2001   -1.3856    0.0000 H   0  0  0  0  0  0  0  0  0  0  0  0
   -7.2001    1.3856    0.0000 H   0  0  0  0  0  0  0  0  0  0  0  0
   -4.7999   -1.6000    0.0000 H   0  0  0  0  0  0  0  0  0  0  0  0
   -4.7999    1.6000    0.0000 H   0  0  0  0  0  0  0  0  0  0  0  0
   -3.2001    1.6000    0.0000 H   0  0  0  0  0  0  0  0  0  0  0  0
   -3.2001   -1.6000    0.0000 H   0  0  0  0  0  0  0  0  0  0  0  0
   -1.6001   -1.6000    0.0000 H   0  0  0  0  0  0  0  0  0  0  0  0
   -1.6001    1.6000    0.0000 H   0  0  0  0  0  0  0  0  0  0  0  0
    0.0000    1.6000    0.0000 H   0  0  0  0  0  0  0  0  0  0  0  0
    0.0000   -1.6000    0.0000 H   0  0  0  0  0  0  0  0  0  0  0  0
    1.6001   -1.6000    0.0000 H   0  0  0  0  0  0  0  0  0  0  0  0
    1.6001    1.6000    0.0000 H   0  0  0  0  0  0  0  0  0  0  0  0
    3.2001   -1.6000    0.0000 H   0  0  0  0  0  0  0  0  0  0  0  0
    3.2001    1.6000    0.0000 H   0  0  0  0  0  0  0  0  0  0  0  0
    4.7999   -1.6000    0.0000 H   0  0  0  0  0  0  0  0  0  0  0  0
    4.7999    1.6000    0.0000 H   0  0  0  0  0  0  0  0  0  0  0  0
    6.3999   -1.6000    0.0000 H   0  0  0  0  0  0  0  0  0  0  0  0
    6.3999    1.6000    0.0000 H   0  0  0  0  0  0  0  0  0  0  0  0
  1  2  2  0  0  0  0
  1  3  1  0  0  0  0
  3  4  1  0  0  0  0
  4  5  1  0  0  0  0
  4  6  1  0  0  0  0
  4  7  1  0  0  0  0
  1  8  1  0  0  0  0
  8  9  1  0  0  0  0
  9 10  1  0  0  0  0
 10 11  1  0  0  0  0
 11 12  1  0  0  0  0
 12 13  1  0  0  0  0
 13 14  1  0  0  0  0
 14 15  1  0  0  0  0
 15 16  1  0  0  0  0
 16 17  1  0  0  0  0
 16 18  1  0  0  0  0
 16 19  1  0  0  0  0
 15 20  1  0  0  0  0
 15 21  1  0  0  0  0
 14 22  1  0  0  0  0
 14 23  1  0  0  0  0
 13 24  1  0  0  0  0
 13 25  1  0  0  0  0
 12 26  1  0  0  0  0
 12 27  1  0  0  0  0
 11 28  1  0  0  0  0
 11 29  1  0  0  0  0
 10 30  1  0  0  0  0
 10 31  1  0  0  0  0
  9 32  1  0  0  0  0
  9 33  1  0  0  0  0
  8 34  1  0  0  0  0
  8 35  1  0  0  0  0
M  END
> <CAS>
110-42-9

> <NAME>
METHYL DECANOATE

> <preferred_name>
Methyl decanoate

> <iupac>
methyl decanoate

> <SMILES>
CCCCCCCCCC(=O)OC

> <Canonical_QSARr>
CCCCCCCCCC(=O)OC

> <InChI_Code_QSARr>
InChI=1S/C11H22O2/c1-3-4-5-6-7-8-9-10-11(12)13-2/h3-10H2,1-2H3

> <InChI Key_QSARr>
YRHYCMZPEVDGFQ-UHFFFAOYSA-N

> <Salt_Solvent>
?

> <WS Temperature>
20

> <WS Reference>
YALKOWSKY,SH & DANNENFELSER,RM (1992)

> <dsstox_substance_id>
DTXSID4026842

> <LogMolar>
-4.6268

$$$$
110-49-6
  -INDIGO-01081615412D

 18 17  0  0  0  0  0  0  0  0999 V2000
    4.1569   -0.8000    0.0000 O   0  0  0  0  0  0  0  0  0  0  0  0
    4.1569    0.8000    0.0000 C   0  0  0  0  0  0  0  0  0  0  0  0
    5.5425    1.6000    0.0000 C   0  0  0  0  0  0  0  0  0  0  0  0
    6.9282    2.4000    0.0000 H   0  0  0  0  0  0  0  0  0  0  0  0
    6.9282    0.8000    0.0000 H   0  0  0  0  0  0  0  0  0  0  0  0
    5.5425    3.2000    0.0000 H   0  0  0  0  0  0  0  0  0  0  0  0
    2.7712    1.6000    0.0000 O   0  0  0  0  0  0  0  0  0  0  0  0
    1.3857    0.8000    0.0000 C   0  0  0  0  0  0  0  0  0  0  0  0
    0.0001    0.0000    0.0000 C   0  0  0  0  0  0  0  0  0  0  0  0
   -1.3856   -0.8000    0.0000 O   0  0  0  0  0  0  0  0  0  0  0  0
   -2.7713    0.0000    0.0000 C   0  0  0  0  0  0  0  0  0  0  0  0
   -4.1569    0.8000    0.0000 H   0  0  0  0  0  0  0  0  0  0  0  0
   -4.1569   -0.8000    0.0000 H   0  0  0  0  0  0  0  0  0  0  0  0
   -2.7713    1.6000    0.0000 H   0  0  0  0  0  0  0  0  0  0  0  0
   -0.8000    1.3856    0.0000 H   0  0  0  0  0  0  0  0  0  0  0  0
    0.8000   -1.3856    0.0000 H   0  0  0  0  0  0  0  0  0  0  0  0
    2.1856   -0.5856    0.0000 H   0  0  0  0  0  0  0  0  0  0  0  0
    0.5857    2.1856    0.0000 H   0  0  0  0  0  0  0  0  0  0  0  0
  1  2  2  0  0  0  0
  2  3  1  0  0  0  0
  3  4  1  0  0  0  0
  3  5  1  0  0  0  0
  3  6  1  0  0  0  0
  2  7  1  0  0  0  0
  7  8  1  0  0  0  0
  8  9  1  0  0  0  0
  9 10  1  0  0  0  0
 10 11  1  0  0  0  0
 11 12  1  0  0  0  0
 11 13  1  0  0  0  0
 11 14  1  0  0  0  0
  9 15  1  0  0  0  0
  9 16  1  0  0  0  0
  8 17  1  0  0  0  0
  8 18  1  0  0  0  0
M  END
> <CAS>
110-49-6

> <NAME>
2-METHOXYETHYL ACETATE

> <preferred_name>
2-Methoxyethyl acetate

> <iupac>
2-methoxyethyl acetate

> <SMILES>
COCCOC(C)=O

> <Canonical_QSARr>
COCCOC(C)=O

> <InChI_Code_QSARr>
InChI=1S/C5H10O3/c1-5(6)8-4-3-7-2/h3-4H2,1-2H3

> <InChI Key_QSARr>
XLLIQLLCWZCATF-UHFFFAOYSA-N

> <Salt_Solvent>
?

> <WS Temperature>
20

> <WS Reference>
YALKOWSKY,SH & DANNENFELSER,RM (1992)

> <dsstox_substance_id>
DTXSID2025553

> <LogMolar>
0.9276

$$$$
110-56-5
  -INDIGO-01081615412D

 14 13  0  0  0  0  0  0  0  0999 V2000
   -2.4001    1.3856    0.0000 Cl  0  0  0  0  0  0  0  0  0  0  0  0
   -1.6000   -0.0000    0.0000 C   0  0  0  0  0  0  0  0  0  0  0  0
    0.0000    0.0000    0.0000 C   0  0  0  0  0  0  0  0  0  0  0  0
    1.6000    0.0000    0.0000 C   0  0  0  0  0  0  0  0  0  0  0  0
    3.2000    0.0000    0.0000 C   0  0  0  0  0  0  0  0  0  0  0  0
    4.8000    0.0000    0.0000 Cl  0  0  0  0  0  0  0  0  0  0  0  0
    4.0001   -1.3856    0.0000 H   0  0  0  0  0  0  0  0  0  0  0  0
    4.0001    1.3856    0.0000 H   0  0  0  0  0  0  0  0  0  0  0  0
    1.6000   -1.6000    0.0000 H   0  0  0  0  0  0  0  0  0  0  0  0
    1.6000    1.6000    0.0000 H   0  0  0  0  0  0  0  0  0  0  0  0
    0.0000    1.6000    0.0000 H   0  0  0  0  0  0  0  0  0  0  0  0
    0.0000   -1.6000    0.0000 H   0  0  0  0  0  0  0  0  0  0  0  0
   -3.2000   -0.0000    0.0000 H   0  0  0  0  0  0  0  0  0  0  0  0
   -2.4001   -1.3856    0.0000 H   0  0  0  0  0  0  0  0  0  0  0  0
  1  2  1  0  0  0  0
  2  3  1  0  0  0  0
  3  4  1  0  0  0  0
  4  5  1  0  0  0  0
  5  6  1  0  0  0  0
  5  7  1  0  0  0  0
  5  8  1  0  0  0  0
  4  9  1  0  0  0  0
  4 10  1  0  0  0  0
  3 11  1  0  0  0  0
  3 12  1  0  0  0  0
  2 13  1  0  0  0  0
  2 14  1  0  0  0  0
M  END
> <CAS>
110-56-5

> <NAME>
1,4-DICHLOROBUTANE

> <preferred_name>
1,4-Dichlorobutane

> <iupac>
1,4-dichlorobutane

> <SMILES>
ClCCCCCl

> <Canonical_QSARr>
ClCCCCCl

> <InChI_Code_QSARr>
InChI=1S/C4H8Cl2/c5-3-1-2-4-6/h1-4H2

> <InChI Key_QSARr>
KJDRSWPQXHESDQ-UHFFFAOYSA-N

> <Salt_Solvent>
?

> <WS Temperature>


> <WS Reference>
YALKOWSKY,SH & DANNENFELSER,RM (1992)

> <dsstox_substance_id>
DTXSID5021918

> <LogMolar>
-0.92

$$$$
110-62-3
  -INDIGO-01081615412D

 16 15  0  0  0  0  0  0  0  0999 V2000
    3.2001    0.0000    0.0000 C   0  0  0  0  0  0  0  0  0  0  0  0
    1.6000    0.0000    0.0000 C   0  0  0  0  0  0  0  0  0  0  0  0
    0.0000    0.0000    0.0000 C   0  0  0  0  0  0  0  0  0  0  0  0
   -1.6000    0.0000    0.0000 C   0  0  0  0  0  0  0  0  0  0  0  0
   -3.2000   -0.0000    0.0000 C   0  0  0  0  0  0  0  0  0  0  0  0
   -4.0000   -1.3856    0.0000 O   0  0  0  0  0  0  0  0  0  0  0  0
   -4.0000    1.3856    0.0000 H   0  0  0  0  0  0  0  0  0  0  0  0
   -1.6000   -1.6000    0.0000 H   0  0  0  0  0  0  0  0  0  0  0  0
   -1.6000    1.6000    0.0000 H   0  0  0  0  0  0  0  0  0  0  0  0
    0.0000    1.6000    0.0000 H   0  0  0  0  0  0  0  0  0  0  0  0
    0.0000   -1.6000    0.0000 H   0  0  0  0  0  0  0  0  0  0  0  0
    1.6000   -1.6000    0.0000 H   0  0  0  0  0  0  0  0  0  0  0  0
    1.6000    1.6000    0.0000 H   0  0  0  0  0  0  0  0  0  0  0  0
    4.8000    0.0000    0.0000 H   0  0  0  0  0  0  0  0  0  0  0  0
    4.0000   -1.3856    0.0000 H   0  0  0  0  0  0  0  0  0  0  0  0
    4.0000    1.3856    0.0000 H   0  0  0  0  0  0  0  0  0  0  0  0
  1  2  1  0  0  0  0
  2  3  1  0  0  0  0
  3  4  1  0  0  0  0
  4  5  1  0  0  0  0
  5  6  2  0  0  0  0
  5  7  1  0  0  0  0
  4  8  1  0  0  0  0
  4  9  1  0  0  0  0
  3 10  1  0  0  0  0
  3 11  1  0  0  0  0
  2 12  1  0  0  0  0
  2 13  1  0  0  0  0
  1 14  1  0  0  0  0
  1 15  1  0  0  0  0
  1 16  1  0  0  0  0
M  END
> <CAS>
110-62-3

> <NAME>
1-PENTANAL

> <preferred_name>
Pentanal

> <iupac>
pentanal

> <SMILES>
CCCCC=O

> <Canonical_QSARr>
CCCCC=O

> <InChI_Code_QSARr>
InChI=1S/C5H10O/c1-2-3-4-5-6/h5H,2-4H2,1H3

> <InChI Key_QSARr>
HGBOYTHUEUWSSQ-UHFFFAOYSA-N

> <Salt_Solvent>
?

> <WS Temperature>
25

> <WS Reference>
YALKOWSKY,SH & DANNENFELSER,RM (1992)

> <dsstox_substance_id>
DTXSID7021653

> <LogMolar>
-0.867

$$$$
110-80-5
  -INDIGO-01081615412D

 16 15  0  0  0  0  0  0  0  0999 V2000
    2.7713   -1.6000    0.0000 O   0  0  0  0  0  0  0  0  0  0  0  0
    1.3857   -0.8000    0.0000 C   0  0  0  0  0  0  0  0  0  0  0  0
    0.0001    0.0000    0.0000 C   0  0  0  0  0  0  0  0  0  0  0  0
   -1.3857    0.8000    0.0000 O   0  0  0  0  0  0  0  0  0  0  0  0
   -2.7713    0.0000    0.0000 C   0  0  0  0  0  0  0  0  0  0  0  0
   -4.1569   -0.8000    0.0000 C   0  0  0  0  0  0  0  0  0  0  0  0
   -5.5426   -1.6000    0.0000 H   0  0  0  0  0  0  0  0  0  0  0  0
   -5.5426   -0.0000    0.0000 H   0  0  0  0  0  0  0  0  0  0  0  0
   -4.1569   -2.4000    0.0000 H   0  0  0  0  0  0  0  0  0  0  0  0
   -3.5713    1.3856    0.0000 H   0  0  0  0  0  0  0  0  0  0  0  0
   -1.9712   -1.3856    0.0000 H   0  0  0  0  0  0  0  0  0  0  0  0
    0.8000    1.3856    0.0000 H   0  0  0  0  0  0  0  0  0  0  0  0
   -0.8000   -1.3856    0.0000 H   0  0  0  0  0  0  0  0  0  0  0  0
    0.5856   -2.1856    0.0000 H   0  0  0  0  0  0  0  0  0  0  0  0
    2.1856    0.5857    0.0000 H   0  0  0  0  0  0  0  0  0  0  0  0
    4.1569   -0.8000    0.0000 H   0  0  0  0  0  0  0  0  0  0  0  0
  1  2  1  0  0  0  0
  2  3  1  0  0  0  0
  3  4  1  0  0  0  0
  4  5  1  0  0  0  0
  5  6  1  0  0  0  0
  6  7  1  0  0  0  0
  6  8  1  0  0  0  0
  6  9  1  0  0  0  0
  5 10  1  0  0  0  0
  5 11  1  0  0  0  0
  3 12  1  0  0  0  0
  3 13  1  0  0  0  0
  2 14  1  0  0  0  0
  2 15  1  0  0  0  0
  1 16  1  0  0  0  0
M  END
> <CAS>
110-80-5

> <NAME>
2-Ethoxyethanol

> <preferred_name>
2-Ethoxyethanol

> <iupac>
2-ethoxyethanol

> <SMILES>
CCOCCO

> <Canonical_QSARr>
CCOCCO

> <InChI_Code_QSARr>
InChI=1S/C4H10O2/c1-2-6-4-3-5/h5H,2-4H2,1H3

> <InChI Key_QSARr>
ZNQVEEAIQZEUHB-UHFFFAOYSA-N

> <Salt_Solvent>
?

> <WS Temperature>


> <WS Reference>
DOW CHEMICAL COMPANY (1981)

> <dsstox_substance_id>
DTXSID7024087

> <LogMolar>
1.0452

$$$$
110-85-0
  -INDIGO-01081615412D

 16 16  0  0  0  0  0  0  0  0999 V2000
   -0.0000    0.0000    0.0000 C   0  0  0  0  0  0  0  0  0  0  0  0
   -1.3857   -0.8000    0.0000 N   0  0  0  0  0  0  0  0  0  0  0  0
   -2.7713    0.0000    0.0000 H   0  0  0  0  0  0  0  0  0  0  0  0
   -1.3857   -2.4000    0.0000 C   0  0  0  0  0  0  0  0  0  0  0  0
   -2.9613   -2.1222    0.0000 H   0  0  0  0  0  0  0  0  0  0  0  0
   -1.9329   -3.9035    0.0000 H   0  0  0  0  0  0  0  0  0  0  0  0
    0.0000   -3.2000    0.0000 C   0  0  0  0  0  0  0  0  0  0  0  0
   -1.0285   -4.4257    0.0000 H   0  0  0  0  0  0  0  0  0  0  0  0
    1.0285   -4.4257    0.0000 H   0  0  0  0  0  0  0  0  0  0  0  0
    1.3857   -2.4000    0.0000 N   0  0  0  0  0  0  0  0  0  0  0  0
    2.7713   -3.2000    0.0000 H   0  0  0  0  0  0  0  0  0  0  0  0
    1.3857   -0.8000    0.0000 C   0  0  0  0  0  0  0  0  0  0  0  0
    2.9613   -1.0778    0.0000 H   0  0  0  0  0  0  0  0  0  0  0  0
    1.9329    0.7035    0.0000 H   0  0  0  0  0  0  0  0  0  0  0  0
    1.0285    1.2257    0.0000 H   0  0  0  0  0  0  0  0  0  0  0  0
   -1.0285    1.2257    0.0000 H   0  0  0  0  0  0  0  0  0  0  0  0
  1  2  1  0  0  0  0
  2  3  1  0  0  0  0
  2  4  1  0  0  0  0
  4  5  1  0  0  0  0
  4  6  1  0  0  0  0
  4  7  1  0  0  0  0
  7  8  1  0  0  0  0
  7  9  1  0  0  0  0
  7 10  1  0  0  0  0
 10 11  1  0  0  0  0
 10 12  1  0  0  0  0
 12  1  1  0  0  0  0
 12 13  1  0  0  0  0
 12 14  1  0  0  0  0
  1 15  1  0  0  0  0
  1 16  1  0  0  0  0
M  END
> <CAS>
110-85-0

> <NAME>
PIPERAZINE

> <preferred_name>
Piperazine

> <iupac>
piperazine

> <SMILES>
C1CNCCN1

> <Canonical_QSARr>
C1CNCCN1

> <InChI_Code_QSARr>
InChI=1S/C4H10N2/c1-2-6-4-3-5-1/h5-6H,1-4H2

> <InChI Key_QSARr>
GLUUGHFHXGJENI-UHFFFAOYSA-N

> <Salt_Solvent>
?

> <WS Temperature>
25

> <WS Reference>
MERCK INDEX (1996)

> <dsstox_substance_id>
DTXSID1021164

> <LogMolar>
1.0648

$$$$
110-91-8
  -INDIGO-01081615412D

 15 15  0  0  0  0  0  0  0  0999 V2000
    0.0000   -0.0000    0.0000 C   0  0  0  0  0  0  0  0  0  0  0  0
   -1.3857    0.8000    0.0000 N   0  0  0  0  0  0  0  0  0  0  0  0
   -1.3857    2.4000    0.0000 H   0  0  0  0  0  0  0  0  0  0  0  0
   -2.7713   -0.0000    0.0000 C   0  0  0  0  0  0  0  0  0  0  0  0
   -3.3185    1.5035    0.0000 H   0  0  0  0  0  0  0  0  0  0  0  0
   -4.3470   -0.2778    0.0000 H   0  0  0  0  0  0  0  0  0  0  0  0
   -2.7713   -1.6000    0.0000 C   0  0  0  0  0  0  0  0  0  0  0  0
   -4.3470   -1.3222    0.0000 H   0  0  0  0  0  0  0  0  0  0  0  0
   -3.3185   -3.1035    0.0000 H   0  0  0  0  0  0  0  0  0  0  0  0
   -1.3856   -2.4000    0.0000 O   0  0  0  0  0  0  0  0  0  0  0  0
    0.0000   -1.6000    0.0000 C   0  0  0  0  0  0  0  0  0  0  0  0
    0.5472   -3.1035    0.0000 H   0  0  0  0  0  0  0  0  0  0  0  0
    1.5757   -1.3222    0.0000 H   0  0  0  0  0  0  0  0  0  0  0  0
    1.5757   -0.2778    0.0000 H   0  0  0  0  0  0  0  0  0  0  0  0
    0.5472    1.5035    0.0000 H   0  0  0  0  0  0  0  0  0  0  0  0
  1  2  1  0  0  0  0
  2  3  1  0  0  0  0
  2  4  1  0  0  0  0
  4  5  1  0  0  0  0
  4  6  1  0  0  0  0
  4  7  1  0  0  0  0
  7  8  1  0  0  0  0
  7  9  1  0  0  0  0
  7 10  1  0  0  0  0
 10 11  1  0  0  0  0
 11  1  1  0  0  0  0
 11 12  1  0  0  0  0
 11 13  1  0  0  0  0
  1 14  1  0  0  0  0
  1 15  1  0  0  0  0
M  END
> <CAS>
110-91-8

> <NAME>
MORPHOLINE

> <preferred_name>
Morpholine

> <iupac>
morpholine

> <SMILES>
C1COCCN1

> <Canonical_QSARr>
C1COCCN1

> <InChI_Code_QSARr>
InChI=1S/C4H9NO/c1-3-6-4-2-5-1/h5H,1-4H2

> <InChI Key_QSARr>
YNAVUWVOSKDBBP-UHFFFAOYSA-N

> <Salt_Solvent>
?

> <WS Temperature>


> <WS Reference>
RIDDICK,JA ET AL. (1986)

> <dsstox_substance_id>
DTXSID2025688

> <LogMolar>
1.0599

$$$$
110-99-6
  -INDIGO-01081615412D

 15 14  0  0  0  0  0  0  0  0999 V2000
   -1.3856    0.8000    0.0000 C   0  0  0  0  0  0  0  0  0  0  0  0
    0.0001   -0.0000    0.0000 C   0  0  0  0  0  0  0  0  0  0  0  0
    1.3857   -0.8000    0.0000 O   0  0  0  0  0  0  0  0  0  0  0  0
    2.7712   -0.0000    0.0000 C   0  0  0  0  0  0  0  0  0  0  0  0
    4.1569    0.8000    0.0000 C   0  0  0  0  0  0  0  0  0  0  0  0
    5.5425   -0.0000    0.0000 O   0  0  0  0  0  0  0  0  0  0  0  0
    6.9282    0.8000    0.0000 H   0  0  0  0  0  0  0  0  0  0  0  0
    4.1569    2.4000    0.0000 O   0  0  0  0  0  0  0  0  0  0  0  0
    3.5713   -1.3856    0.0000 H   0  0  0  0  0  0  0  0  0  0  0  0
    1.9713    1.3856    0.0000 H   0  0  0  0  0  0  0  0  0  0  0  0
    0.8000    1.3856    0.0000 H   0  0  0  0  0  0  0  0  0  0  0  0
   -0.8000   -1.3856    0.0000 H   0  0  0  0  0  0  0  0  0  0  0  0
   -2.7713   -0.0000    0.0000 O   0  0  0  0  0  0  0  0  0  0  0  0
   -4.1569    0.8000    0.0000 H   0  0  0  0  0  0  0  0  0  0  0  0
   -1.3856    2.4000    0.0000 O   0  0  0  0  0  0  0  0  0  0  0  0
  1  2  1  0  0  0  0
  2  3  1  0  0  0  0
  3  4  1  0  0  0  0
  4  5  1  0  0  0  0
  5  6  1  0  0  0  0
  6  7  1  0  0  0  0
  5  8  2  0  0  0  0
  4  9  1  0  0  0  0
  4 10  1  0  0  0  0
  2 11  1  0  0  0  0
  2 12  1  0  0  0  0
  1 13  1  0  0  0  0
 13 14  1  0  0  0  0
  1 15  2  0  0  0  0
M  END
> <CAS>
110-99-6

> <NAME>
Acetic acid, 2,2'-oxybis-

> <preferred_name>
Diglycolic acid

> <iupac>
2,2'-oxydiacetic acid

> <SMILES>
OC(=O)COCC(O)=O

> <Canonical_QSARr>
OC(=O)COCC(O)=O

> <InChI_Code_QSARr>
InChI=1S/C4H6O5/c5-3(6)1-9-2-4(7)8/h1-2H2,(H,5,6)(H,7,8)

> <InChI Key_QSARr>
QEVGZEDELICMKH-UHFFFAOYSA-N

> <Salt_Solvent>
?

> <WS Temperature>
25

> <WS Reference>
BEILSTEIN

> <dsstox_substance_id>
DTXSID4041575

> <LogMolar>
0.4927

$$$$
111-15-9
  -INDIGO-01081615412D

 21 20  0  0  0  0  0  0  0  0999 V2000
    5.5425   -1.6000    0.0000 C   0  0  0  0  0  0  0  0  0  0  0  0
    4.1570   -0.8000    0.0000 C   0  0  0  0  0  0  0  0  0  0  0  0
    2.7713   -1.6000    0.0000 O   0  0  0  0  0  0  0  0  0  0  0  0
    1.3856   -0.8000    0.0000 C   0  0  0  0  0  0  0  0  0  0  0  0
    0.0001   -0.0000    0.0000 C   0  0  0  0  0  0  0  0  0  0  0  0
   -1.3856    0.8000    0.0000 O   0  0  0  0  0  0  0  0  0  0  0  0
   -2.7713   -0.0000    0.0000 C   0  0  0  0  0  0  0  0  0  0  0  0
   -4.1569   -0.8000    0.0000 C   0  0  0  0  0  0  0  0  0  0  0  0
   -5.5426   -1.6000    0.0000 H   0  0  0  0  0  0  0  0  0  0  0  0
   -5.5426   -0.0000    0.0000 H   0  0  0  0  0  0  0  0  0  0  0  0
   -4.1569   -2.4000    0.0000 H   0  0  0  0  0  0  0  0  0  0  0  0
   -3.5713    1.3856    0.0000 H   0  0  0  0  0  0  0  0  0  0  0  0
   -1.9714   -1.3856    0.0000 H   0  0  0  0  0  0  0  0  0  0  0  0
    0.8000    1.3856    0.0000 H   0  0  0  0  0  0  0  0  0  0  0  0
   -0.7999   -1.3856    0.0000 H   0  0  0  0  0  0  0  0  0  0  0  0
    0.5856   -2.1856    0.0000 H   0  0  0  0  0  0  0  0  0  0  0  0
    2.1856    0.5856    0.0000 H   0  0  0  0  0  0  0  0  0  0  0  0
    4.1570    0.8000    0.0000 O   0  0  0  0  0  0  0  0  0  0  0  0
    6.9282   -2.4000    0.0000 H   0  0  0  0  0  0  0  0  0  0  0  0
    6.9282   -0.8000    0.0000 H   0  0  0  0  0  0  0  0  0  0  0  0
    5.5425   -3.2000    0.0000 H   0  0  0  0  0  0  0  0  0  0  0  0
  1  2  1  0  0  0  0
  2  3  1  0  0  0  0
  3  4  1  0  0  0  0
  4  5  1  0  0  0  0
  5  6  1  0  0  0  0
  6  7  1  0  0  0  0
  7  8  1  0  0  0  0
  8  9  1  0  0  0  0
  8 10  1  0  0  0  0
  8 11  1  0  0  0  0
  7 12  1  0  0  0  0
  7 13  1  0  0  0  0
  5 14  1  0  0  0  0
  5 15  1  0  0  0  0
  4 16  1  0  0  0  0
  4 17  1  0  0  0  0
  2 18  2  0  0  0  0
  1 19  1  0  0  0  0
  1 20  1  0  0  0  0
  1 21  1  0  0  0  0
M  END
> <CAS>
111-15-9

> <NAME>
ETHOXYETHYLACETATE

> <preferred_name>
2-Ethoxyethyl acetate

> <iupac>
2-ethoxyethyl acetate

> <SMILES>
CCOCCOC(C)=O

> <Canonical_QSARr>
CCOCCOC(C)=O

> <InChI_Code_QSARr>
InChI=1S/C6H12O3/c1-3-8-4-5-9-6(2)7/h3-5H2,1-2H3

> <InChI Key_QSARr>
SVONRAPFKPVNKG-UHFFFAOYSA-N

> <Salt_Solvent>
?

> <WS Temperature>
20

> <WS Reference>
YALKOWSKY,SH & HE,Y (2003)

> <dsstox_substance_id>
DTXSID9021928

> <LogMolar>
0.2716

$$$$
111-22-8
  -INDIGO-01081615412D

 28 27  0  0  0  0  0  0  0  0999 V2000
   -6.9282    0.8000    0.0000 N   0  0  0  0  0  0  0  0  0  0  0  0
   -5.5426    1.6000    0.0000 O   0  0  0  0  0  0  0  0  0  0  0  0
   -4.1570    0.8000    0.0000 C   0  0  0  0  0  0  0  0  0  0  0  0
   -2.7712   -0.0000    0.0000 C   0  0  0  0  0  0  0  0  0  0  0  0
   -1.3856   -0.8000    0.0000 O   0  0  0  0  0  0  0  0  0  0  0  0
    0.0000   -0.0000    0.0000 C   0  0  0  0  0  0  0  0  0  0  0  0
    1.3856    0.8000    0.0000 C   0  0  0  0  0  0  0  0  0  0  0  0
    2.7712    1.6000    0.0000 O   0  0  0  0  0  0  0  0  0  0  0  0
    4.1568    0.8000    0.0000 C   0  0  0  0  0  0  0  0  0  0  0  0
    5.5427   -0.0000    0.0000 C   0  0  0  0  0  0  0  0  0  0  0  0
    6.9283   -0.8000    0.0000 O   0  0  0  0  0  0  0  0  0  0  0  0
    8.3139   -0.0000    0.0000 N   0  0  0  0  0  0  0  0  0  0  0  0
    9.6995   -0.8000    0.0000 O   0  0  0  0  0  0  0  0  0  0  0  0
    8.3139    1.6000    0.0000 O   0  0  0  0  0  0  0  0  0  0  0  0
    6.3425    1.3857    0.0000 H   0  0  0  0  0  0  0  0  0  0  0  0
    4.7426   -1.3856    0.0000 H   0  0  0  0  0  0  0  0  0  0  0  0
    4.9570    2.1856    0.0000 H   0  0  0  0  0  0  0  0  0  0  0  0
    3.3570   -0.5857    0.0000 H   0  0  0  0  0  0  0  0  0  0  0  0
    2.1858   -0.5857    0.0000 H   0  0  0  0  0  0  0  0  0  0  0  0
    0.5858    2.1856    0.0000 H   0  0  0  0  0  0  0  0  0  0  0  0
   -0.8001    1.3857    0.0000 H   0  0  0  0  0  0  0  0  0  0  0  0
    0.7999   -1.3856    0.0000 H   0  0  0  0  0  0  0  0  0  0  0  0
   -3.5713   -1.3856    0.0000 H   0  0  0  0  0  0  0  0  0  0  0  0
   -1.9713    1.3857    0.0000 H   0  0  0  0  0  0  0  0  0  0  0  0
   -4.9569   -0.5857    0.0000 H   0  0  0  0  0  0  0  0  0  0  0  0
   -3.3569    2.1856    0.0000 H   0  0  0  0  0  0  0  0  0  0  0  0
   -8.3138    1.6000    0.0000 O   0  0  0  0  0  0  0  0  0  0  0  0
   -6.9282   -0.8000    0.0000 O   0  0  0  0  0  0  0  0  0  0  0  0
  1  2  1  0  0  0  0
  2  3  1  0  0  0  0
  3  4  1  0  0  0  0
  4  5  1  0  0  0  0
  5  6  1  0  0  0  0
  6  7  1  0  0  0  0
  7  8  1  0  0  0  0
  8  9  1  0  0  0  0
  9 10  1  0  0  0  0
 10 11  1  0  0  0  0
 11 12  1  0  0  0  0
 12 13  2  0  0  0  0
 12 14  1  0  0  0  0
 10 15  1  0  0  0  0
 10 16  1  0  0  0  0
  9 17  1  0  0  0  0
  9 18  1  0  0  0  0
  7 19  1  0  0  0  0
  7 20  1  0  0  0  0
  6 21  1  0  0  0  0
  6 22  1  0  0  0  0
  4 23  1  0  0  0  0
  4 24  1  0  0  0  0
  3 25  1  0  0  0  0
  3 26  1  0  0  0  0
  1 27  2  0  0  0  0
  1 28  1  0  0  0  0
M  CHG  4   1   1  12   1  14  -1  28  -1
M  END
> <CAS>
111-22-8

> <NAME>
TRIETHYLENE GLYCOL, DINITRATE

> <preferred_name>
Triethylene glycol dinitrate

> <iupac>
ethane-1,2-diylbis(oxyethane-2,1-diyl) dinitrate

> <SMILES>
[O-][N+](=O)OCCOCCOCCO[N+]([O-])=O

> <Canonical_QSARr>
[O-][N+](=O)OCCOCCOCCO[N+]([O-])=O

> <InChI_Code_QSARr>
InChI=1S/C6H12N2O8/c9-7(10)15-5-3-13-1-2-14-4-6-16-8(11)12/h1-6H2

> <InChI Key_QSARr>
AGCQZYRSTIRJFM-UHFFFAOYSA-N

> <Salt_Solvent>
?

> <WS Temperature>
25

> <WS Reference>
BEILSTEIN

> <dsstox_substance_id>
DTXSID0051572

> <LogMolar>
-1.561

$$$$
111-34-2
  -INDIGO-01081615412D

 19 18  0  0  0  0  0  0  0  0999 V2000
   -1.6001    0.0000    0.0000 C   0  0  0  0  0  0  0  0  0  0  0  0
   -3.2000    0.0000    0.0000 O   0  0  0  0  0  0  0  0  0  0  0  0
   -4.0000   -1.3856    0.0000 C   0  0  0  0  0  0  0  0  0  0  0  0
   -5.6000   -1.3856    0.0000 C   0  0  0  0  0  0  0  0  0  0  0  0
   -6.4000   -2.7713    0.0000 H   0  0  0  0  0  0  0  0  0  0  0  0
   -6.4000    0.0000    0.0000 H   0  0  0  0  0  0  0  0  0  0  0  0
   -3.2000   -2.7713    0.0000 H   0  0  0  0  0  0  0  0  0  0  0  0
    0.0001    0.0000    0.0000 C   0  0  0  0  0  0  0  0  0  0  0  0
    1.6000    0.0000    0.0000 C   0  0  0  0  0  0  0  0  0  0  0  0
    3.2000    0.0000    0.0000 C   0  0  0  0  0  0  0  0  0  0  0  0
    4.8000    0.0000    0.0000 H   0  0  0  0  0  0  0  0  0  0  0  0
    4.0000   -1.3856    0.0000 H   0  0  0  0  0  0  0  0  0  0  0  0
    4.0000    1.3856    0.0000 H   0  0  0  0  0  0  0  0  0  0  0  0
    1.6000   -1.6000    0.0000 H   0  0  0  0  0  0  0  0  0  0  0  0
    1.6000    1.6000    0.0000 H   0  0  0  0  0  0  0  0  0  0  0  0
    0.0001    1.6000    0.0000 H   0  0  0  0  0  0  0  0  0  0  0  0
    0.0001   -1.6000    0.0000 H   0  0  0  0  0  0  0  0  0  0  0  0
   -1.6001   -1.6000    0.0000 H   0  0  0  0  0  0  0  0  0  0  0  0
   -1.6001    1.6000    0.0000 H   0  0  0  0  0  0  0  0  0  0  0  0
  1  2  1  0  0  0  0
  2  3  1  0  0  0  0
  3  4  2  0  0  0  0
  4  5  1  0  0  0  0
  4  6  1  0  0  0  0
  3  7  1  0  0  0  0
  1  8  1  0  0  0  0
  8  9  1  0  0  0  0
  9 10  1  0  0  0  0
 10 11  1  0  0  0  0
 10 12  1  0  0  0  0
 10 13  1  0  0  0  0
  9 14  1  0  0  0  0
  9 15  1  0  0  0  0
  8 16  1  0  0  0  0
  8 17  1  0  0  0  0
  1 18  1  0  0  0  0
  1 19  1  0  0  0  0
M  END
> <CAS>
111-34-2

> <NAME>
BUTYL VINYL ETHER

> <preferred_name>
Butyl vinyl ether

> <iupac>
butyl vinyl ether

> <SMILES>
CCCCOC=C

> <Canonical_QSARr>
CCCCOC=C

> <InChI_Code_QSARr>
InChI=1S/C6H12O/c1-3-5-6-7-4-2/h4H,2-3,5-6H2,1H3

> <InChI Key_QSARr>
UZKWTJUDCOPSNM-UHFFFAOYSA-N

> <Salt_Solvent>
?

> <WS Temperature>
20

> <WS Reference>
RIDDICK,JA ET AL. (1986)

> <dsstox_substance_id>
DTXSID5051575

> <LogMolar>
-1.5236

$$$$
111-43-3
  -INDIGO-01081615412D

 21 20  0  0  0  0  0  0  0  0999 V2000
    2.7712    1.6000    0.0000 O   0  0  0  0  0  0  0  0  0  0  0  0
    4.1569    0.8000    0.0000 C   0  0  0  0  0  0  0  0  0  0  0  0
    5.5425   -0.0000    0.0000 C   0  0  0  0  0  0  0  0  0  0  0  0
    6.9282   -0.8000    0.0000 C   0  0  0  0  0  0  0  0  0  0  0  0
    8.3138   -1.6000    0.0000 H   0  0  0  0  0  0  0  0  0  0  0  0
    8.3138   -0.0000    0.0000 H   0  0  0  0  0  0  0  0  0  0  0  0
    6.9282   -2.4000    0.0000 H   0  0  0  0  0  0  0  0  0  0  0  0
    6.3426    1.3856    0.0000 H   0  0  0  0  0  0  0  0  0  0  0  0
    4.7426   -1.3856    0.0000 H   0  0  0  0  0  0  0  0  0  0  0  0
    4.9569    2.1856    0.0000 H   0  0  0  0  0  0  0  0  0  0  0  0
    3.3570   -0.5856    0.0000 H   0  0  0  0  0  0  0  0  0  0  0  0
    1.3857    0.8000    0.0000 C   0  0  0  0  0  0  0  0  0  0  0  0
    0.0000   -0.0000    0.0000 C   0  0  0  0  0  0  0  0  0  0  0  0
   -1.3856   -0.8000    0.0000 C   0  0  0  0  0  0  0  0  0  0  0  0
   -2.7713   -1.6000    0.0000 H   0  0  0  0  0  0  0  0  0  0  0  0
   -1.3856   -2.4000    0.0000 H   0  0  0  0  0  0  0  0  0  0  0  0
   -2.7713   -0.0000    0.0000 H   0  0  0  0  0  0  0  0  0  0  0  0
   -0.8000    1.3856    0.0000 H   0  0  0  0  0  0  0  0  0  0  0  0
    0.7999   -1.3856    0.0000 H   0  0  0  0  0  0  0  0  0  0  0  0
    2.1856   -0.5856    0.0000 H   0  0  0  0  0  0  0  0  0  0  0  0
    0.5856    2.1856    0.0000 H   0  0  0  0  0  0  0  0  0  0  0  0
  1  2  1  0  0  0  0
  2  3  1  0  0  0  0
  3  4  1  0  0  0  0
  4  5  1  0  0  0  0
  4  6  1  0  0  0  0
  4  7  1  0  0  0  0
  3  8  1  0  0  0  0
  3  9  1  0  0  0  0
  2 10  1  0  0  0  0
  2 11  1  0  0  0  0
  1 12  1  0  0  0  0
 12 13  1  0  0  0  0
 13 14  1  0  0  0  0
 14 15  1  0  0  0  0
 14 16  1  0  0  0  0
 14 17  1  0  0  0  0
 13 18  1  0  0  0  0
 13 19  1  0  0  0  0
 12 20  1  0  0  0  0
 12 21  1  0  0  0  0
M  END
> <CAS>
111-43-3

> <NAME>
DI(N-PROPYL) ETHER

> <preferred_name>
Propyl ether

> <iupac>
dipropyl ether

> <SMILES>
CCCOCCC

> <Canonical_QSARr>
CCCOCCC

> <InChI_Code_QSARr>
InChI=1S/C6H14O/c1-3-5-7-6-4-2/h3-6H2,1-2H3

> <InChI Key_QSARr>
POLCUAVZOMRGSN-UHFFFAOYSA-N

> <Salt_Solvent>
?

> <WS Temperature>
25

> <WS Reference>
RIDDICK,JA ET AL. (1986)

> <dsstox_substance_id>
DTXSID8042343

> <LogMolar>
-1.3192

$$$$
111-49-9
  -INDIGO-01081615412D

 20 20  0  0  0  0  0  0  0  0999 V2000
    1.3134    3.3467    0.0000 N   0  0  0  0  0  0  0  0  0  0  0  0
   -0.2687    3.5851    0.0000 C   0  0  0  0  0  0  0  0  0  0  0  0
    0.3158    5.0745    0.0000 H   0  0  0  0  0  0  0  0  0  0  0  0
   -1.4140    4.7023    0.0000 H   0  0  0  0  0  0  0  0  0  0  0  0
   -1.4415    2.4969    0.0000 C   0  0  0  0  0  0  0  0  0  0  0  0
   -2.2416    3.8824    0.0000 H   0  0  0  0  0  0  0  0  0  0  0  0
   -3.0291    2.2979    0.0000 H   0  0  0  0  0  0  0  0  0  0  0  0
   -1.3219    0.9013    0.0000 C   0  0  0  0  0  0  0  0  0  0  0  0
   -2.9041    1.1398    0.0000 H   0  0  0  0  0  0  0  0  0  0  0  0
   -2.1563   -0.4640    0.0000 H   0  0  0  0  0  0  0  0  0  0  0  0
   -0.0000    0.0000    0.0000 C   0  0  0  0  0  0  0  0  0  0  0  0
   -0.9661   -1.2754    0.0000 H   0  0  0  0  0  0  0  0  0  0  0  0
    0.8000   -1.3856    0.0000 H   0  0  0  0  0  0  0  0  0  0  0  0
    1.5289    0.4716    0.0000 C   0  0  0  0  0  0  0  0  0  0  0  0
    1.9237   -1.0789    0.0000 H   0  0  0  0  0  0  0  0  0  0  0  0
    3.1111    0.2332    0.0000 H   0  0  0  0  0  0  0  0  0  0  0  0
    2.1135    1.9610    0.0000 C   0  0  0  0  0  0  0  0  0  0  0  0
    3.5719    1.3029    0.0000 H   0  0  0  0  0  0  0  0  0  0  0  0
    3.2863    3.0493    0.0000 H   0  0  0  0  0  0  0  0  0  0  0  0
    2.2148    4.6687    0.0000 H   0  0  0  0  0  0  0  0  0  0  0  0
  1  2  1  0  0  0  0
  2  3  1  0  0  0  0
  2  4  1  0  0  0  0
  2  5  1  0  0  0  0
  5  6  1  0  0  0  0
  5  7  1  0  0  0  0
  5  8  1  0  0  0  0
  8  9  1  0  0  0  0
  8 10  1  0  0  0  0
  8 11  1  0  0  0  0
 11 12  1  0  0  0  0
 11 13  1  0  0  0  0
 11 14  1  0  0  0  0
 14 15  1  0  0  0  0
 14 16  1  0  0  0  0
 14 17  1  0  0  0  0
 17  1  1  0  0  0  0
 17 18  1  0  0  0  0
 17 19  1  0  0  0  0
  1 20  1  0  0  0  0
M  END
> <CAS>
111-49-9

> <NAME>
HEXAMETHYLENEIMINE

> <preferred_name>
Hexamethyleneimine

> <iupac>
azepane

> <SMILES>
C1CCCCCN1

> <Canonical_QSARr>
C1CCCCCN1

> <InChI_Code_QSARr>
InChI=1S/C6H13N/c1-2-4-6-7-5-3-1/h7H,1-6H2

> <InChI Key_QSARr>
ZSIQJIWKELUFRJ-UHFFFAOYSA-N

> <Salt_Solvent>
?

> <WS Temperature>
25

> <WS Reference>
YALKOWSKY,SH & DANNENFELSER,RM (1992)

> <dsstox_substance_id>
DTXSID1026879

> <LogMolar>
0.234

$$$$
111-69-3
  -INDIGO-01081615412D

 16 15  0  0  0  0  0  0  0  0999 V2000
   -4.8000   -0.0000    0.0000 N   0  0  0  0  0  0  0  0  0  0  0  0
   -3.2000   -0.0000    0.0000 C   0  0  0  0  0  0  0  0  0  0  0  0
   -1.6000    0.0000    0.0000 C   0  0  0  0  0  0  0  0  0  0  0  0
   -0.0001    0.0000    0.0000 C   0  0  0  0  0  0  0  0  0  0  0  0
    1.6001    0.0000    0.0000 C   0  0  0  0  0  0  0  0  0  0  0  0
    3.2000    0.0000    0.0000 C   0  0  0  0  0  0  0  0  0  0  0  0
    4.8000    0.0000    0.0000 C   0  0  0  0  0  0  0  0  0  0  0  0
    6.4000    0.0000    0.0000 N   0  0  0  0  0  0  0  0  0  0  0  0
    3.2000   -1.6000    0.0000 H   0  0  0  0  0  0  0  0  0  0  0  0
    3.2000    1.6000    0.0000 H   0  0  0  0  0  0  0  0  0  0  0  0
    1.6001   -1.6000    0.0000 H   0  0  0  0  0  0  0  0  0  0  0  0
    1.6001    1.6000    0.0000 H   0  0  0  0  0  0  0  0  0  0  0  0
   -0.0001    1.6000    0.0000 H   0  0  0  0  0  0  0  0  0  0  0  0
   -0.0001   -1.6000    0.0000 H   0  0  0  0  0  0  0  0  0  0  0  0
   -1.6000   -1.6000    0.0000 H   0  0  0  0  0  0  0  0  0  0  0  0
   -1.6000    1.6000    0.0000 H   0  0  0  0  0  0  0  0  0  0  0  0
  1  2  3  0  0  0  0
  2  3  1  0  0  0  0
  3  4  1  0  0  0  0
  4  5  1  0  0  0  0
  5  6  1  0  0  0  0
  6  7  1  0  0  0  0
  7  8  3  0  0  0  0
  6  9  1  0  0  0  0
  6 10  1  0  0  0  0
  5 11  1  0  0  0  0
  5 12  1  0  0  0  0
  4 13  1  0  0  0  0
  4 14  1  0  0  0  0
  3 15  1  0  0  0  0
  3 16  1  0  0  0  0
M  END
> <CAS>
111-69-3

> <NAME>
ADIPONITRILE

> <preferred_name>
Hexanedinitrile

> <iupac>
hexanedinitrile

> <SMILES>
N#CCCCCC#N

> <Canonical_QSARr>
N#CCCCCC#N

> <InChI_Code_QSARr>
InChI=1S/C6H8N2/c7-5-3-1-2-4-6-8/h1-4H2

> <InChI Key_QSARr>
BTGRAWJCKBQKAO-UHFFFAOYSA-N

> <Salt_Solvent>
?

> <WS Temperature>
20

> <WS Reference>
SMILEY,RA (1981)

> <dsstox_substance_id>
DTXSID3021936

> <LogMolar>
-0.1309

$$$$
111-76-2
  -INDIGO-01081615412D

 22 21  0  0  0  0  0  0  0  0999 V2000
   -6.9281   -0.8000    0.0000 O   0  0  0  0  0  0  0  0  0  0  0  0
   -5.5426   -0.0000    0.0000 C   0  0  0  0  0  0  0  0  0  0  0  0
   -4.1569    0.8000    0.0000 C   0  0  0  0  0  0  0  0  0  0  0  0
   -2.7712    1.6000    0.0000 O   0  0  0  0  0  0  0  0  0  0  0  0
   -1.3857    0.8000    0.0000 C   0  0  0  0  0  0  0  0  0  0  0  0
    0.0000   -0.0000    0.0000 C   0  0  0  0  0  0  0  0  0  0  0  0
    1.3857   -0.8000    0.0000 C   0  0  0  0  0  0  0  0  0  0  0  0
    2.7712   -1.6000    0.0000 C   0  0  0  0  0  0  0  0  0  0  0  0
    4.1569   -2.4000    0.0000 H   0  0  0  0  0  0  0  0  0  0  0  0
    2.7712   -3.2000    0.0000 H   0  0  0  0  0  0  0  0  0  0  0  0
    4.1569   -0.8000    0.0000 H   0  0  0  0  0  0  0  0  0  0  0  0
    0.5857   -2.1857    0.0000 H   0  0  0  0  0  0  0  0  0  0  0  0
    2.1857    0.5856    0.0000 H   0  0  0  0  0  0  0  0  0  0  0  0
    0.8000    1.3856    0.0000 H   0  0  0  0  0  0  0  0  0  0  0  0
   -0.8000   -1.3856    0.0000 H   0  0  0  0  0  0  0  0  0  0  0  0
   -2.1857   -0.5856    0.0000 H   0  0  0  0  0  0  0  0  0  0  0  0
   -0.5857    2.1856    0.0000 H   0  0  0  0  0  0  0  0  0  0  0  0
   -4.9569    2.1856    0.0000 H   0  0  0  0  0  0  0  0  0  0  0  0
   -3.3569   -0.5856    0.0000 H   0  0  0  0  0  0  0  0  0  0  0  0
   -6.3426    1.3856    0.0000 H   0  0  0  0  0  0  0  0  0  0  0  0
   -4.7426   -1.3856    0.0000 H   0  0  0  0  0  0  0  0  0  0  0  0
   -8.3138   -0.0000    0.0000 H   0  0  0  0  0  0  0  0  0  0  0  0
  1  2  1  0  0  0  0
  2  3  1  0  0  0  0
  3  4  1  0  0  0  0
  4  5  1  0  0  0  0
  5  6  1  0  0  0  0
  6  7  1  0  0  0  0
  7  8  1  0  0  0  0
  8  9  1  0  0  0  0
  8 10  1  0  0  0  0
  8 11  1  0  0  0  0
  7 12  1  0  0  0  0
  7 13  1  0  0  0  0
  6 14  1  0  0  0  0
  6 15  1  0  0  0  0
  5 16  1  0  0  0  0
  5 17  1  0  0  0  0
  3 18  1  0  0  0  0
  3 19  1  0  0  0  0
  2 20  1  0  0  0  0
  2 21  1  0  0  0  0
  1 22  1  0  0  0  0
M  END
> <CAS>
111-76-2

> <NAME>
2-BUTOXYETHANOL

> <preferred_name>
2-Butoxyethanol

> <iupac>
C6H14O2

> <SMILES>
CCCCOCCO

> <Canonical_QSARr>
CCCCOCCO

> <InChI_Code_QSARr>
InChI=1S/C6H14O2/c1-2-3-5-8-6-4-7/h7H,2-6H2,1H3

> <InChI Key_QSARr>
POAOYUHQDCAZBD-UHFFFAOYSA-N

> <Salt_Solvent>
?

> <WS Temperature>
20

> <WS Reference>
RIDDICK,JA ET AL. (1986)

> <dsstox_substance_id>
DTXSID1024097

> <LogMolar>
0.9275

$$$$
111-85-3
  -INDIGO-01081615412D

 26 25  0  0  0  0  0  0  0  0999 V2000
   -4.7999   -0.0000    0.0000 C   0  0  0  0  0  0  0  0  0  0  0  0
   -3.2001   -0.0000    0.0000 C   0  0  0  0  0  0  0  0  0  0  0  0
   -1.6000    0.0000    0.0000 C   0  0  0  0  0  0  0  0  0  0  0  0
    0.0001    0.0000    0.0000 C   0  0  0  0  0  0  0  0  0  0  0  0
    1.5999    0.0000    0.0000 C   0  0  0  0  0  0  0  0  0  0  0  0
    3.2000    0.0000    0.0000 C   0  0  0  0  0  0  0  0  0  0  0  0
    4.8001    0.0000    0.0000 C   0  0  0  0  0  0  0  0  0  0  0  0
    6.3999    0.0000    0.0000 C   0  0  0  0  0  0  0  0  0  0  0  0
    8.0000    0.0000    0.0000 Cl  0  0  0  0  0  0  0  0  0  0  0  0
    7.2000   -1.3856    0.0000 H   0  0  0  0  0  0  0  0  0  0  0  0
    7.2000    1.3856    0.0000 H   0  0  0  0  0  0  0  0  0  0  0  0
    4.8001   -1.6000    0.0000 H   0  0  0  0  0  0  0  0  0  0  0  0
    4.8001    1.6000    0.0000 H   0  0  0  0  0  0  0  0  0  0  0  0
    3.2000   -1.6000    0.0000 H   0  0  0  0  0  0  0  0  0  0  0  0
    3.2000    1.6000    0.0000 H   0  0  0  0  0  0  0  0  0  0  0  0
    1.5999   -1.6000    0.0000 H   0  0  0  0  0  0  0  0  0  0  0  0
    1.5999    1.6000    0.0000 H   0  0  0  0  0  0  0  0  0  0  0  0
    0.0001   -1.6000    0.0000 H   0  0  0  0  0  0  0  0  0  0  0  0
    0.0001    1.6000    0.0000 H   0  0  0  0  0  0  0  0  0  0  0  0
   -1.6000   -1.6000    0.0000 H   0  0  0  0  0  0  0  0  0  0  0  0
   -1.6000    1.6000    0.0000 H   0  0  0  0  0  0  0  0  0  0  0  0
   -3.2001    1.6000    0.0000 H   0  0  0  0  0  0  0  0  0  0  0  0
   -3.2001   -1.6000    0.0000 H   0  0  0  0  0  0  0  0  0  0  0  0
   -6.4000   -0.0000    0.0000 H   0  0  0  0  0  0  0  0  0  0  0  0
   -5.6000   -1.3856    0.0000 H   0  0  0  0  0  0  0  0  0  0  0  0
   -5.6000    1.3856    0.0000 H   0  0  0  0  0  0  0  0  0  0  0  0
  1  2  1  0  0  0  0
  2  3  1  0  0  0  0
  3  4  1  0  0  0  0
  4  5  1  0  0  0  0
  5  6  1  0  0  0  0
  6  7  1  0  0  0  0
  7  8  1  0  0  0  0
  8  9  1  0  0  0  0
  8 10  1  0  0  0  0
  8 11  1  0  0  0  0
  7 12  1  0  0  0  0
  7 13  1  0  0  0  0
  6 14  1  0  0  0  0
  6 15  1  0  0  0  0
  5 16  1  0  0  0  0
  5 17  1  0  0  0  0
  4 18  1  0  0  0  0
  4 19  1  0  0  0  0
  3 20  1  0  0  0  0
  3 21  1  0  0  0  0
  2 22  1  0  0  0  0
  2 23  1  0  0  0  0
  1 24  1  0  0  0  0
  1 25  1  0  0  0  0
  1 26  1  0  0  0  0
M  END
> <CAS>
111-85-3

> <NAME>
1-CHLOROOCTANE

> <preferred_name>
1-Chlorooctane

> <iupac>
1-chlorooctane

> <SMILES>
CCCCCCCCCl

> <Canonical_QSARr>
CCCCCCCCCl

> <InChI_Code_QSARr>
InChI=1S/C8H17Cl/c1-2-3-4-5-6-7-8-9/h2-8H2,1H3

> <InChI Key_QSARr>
CNDHHGUSRIZDSL-UHFFFAOYSA-N

> <Salt_Solvent>
?

> <WS Temperature>
25

> <WS Reference>
DEITRICH,AM ET AL. (1993)

> <dsstox_substance_id>
DTXSID0021543

> <LogMolar>
-4.4829

$$$$
111-91-1
  -INDIGO-01081615412D

 19 18  0  0  0  0  0  0  0  0999 V2000
   -4.1569   -0.8000    0.0000 O   0  0  0  0  0  0  0  0  0  0  0  0
   -5.5425   -0.0000    0.0000 C   0  0  0  0  0  0  0  0  0  0  0  0
   -6.9282    0.8000    0.0000 C   0  0  0  0  0  0  0  0  0  0  0  0
   -8.3138    1.6000    0.0000 Cl  0  0  0  0  0  0  0  0  0  0  0  0
   -8.3138   -0.0000    0.0000 H   0  0  0  0  0  0  0  0  0  0  0  0
   -6.9282    2.4000    0.0000 H   0  0  0  0  0  0  0  0  0  0  0  0
   -6.3426   -1.3857    0.0000 H   0  0  0  0  0  0  0  0  0  0  0  0
   -4.7426    1.3857    0.0000 H   0  0  0  0  0  0  0  0  0  0  0  0
   -2.7712    0.0000    0.0000 C   0  0  0  0  0  0  0  0  0  0  0  0
   -1.3857    0.8000    0.0000 O   0  0  0  0  0  0  0  0  0  0  0  0
   -0.0000    0.0000    0.0000 C   0  0  0  0  0  0  0  0  0  0  0  0
    1.3856   -0.8000    0.0000 C   0  0  0  0  0  0  0  0  0  0  0  0
    2.7713   -1.6000    0.0000 Cl  0  0  0  0  0  0  0  0  0  0  0  0
    1.3856   -2.4000    0.0000 H   0  0  0  0  0  0  0  0  0  0  0  0
    2.7713    0.0000    0.0000 H   0  0  0  0  0  0  0  0  0  0  0  0
    0.8000    1.3857    0.0000 H   0  0  0  0  0  0  0  0  0  0  0  0
   -0.7999   -1.3857    0.0000 H   0  0  0  0  0  0  0  0  0  0  0  0
   -3.5713    1.3857    0.0000 H   0  0  0  0  0  0  0  0  0  0  0  0
   -1.9713   -1.3857    0.0000 H   0  0  0  0  0  0  0  0  0  0  0  0
  1  2  1  0  0  0  0
  2  3  1  0  0  0  0
  3  4  1  0  0  0  0
  3  5  1  0  0  0  0
  3  6  1  0  0  0  0
  2  7  1  0  0  0  0
  2  8  1  0  0  0  0
  1  9  1  0  0  0  0
  9 10  1  0  0  0  0
 10 11  1  0  0  0  0
 11 12  1  0  0  0  0
 12 13  1  0  0  0  0
 12 14  1  0  0  0  0
 12 15  1  0  0  0  0
 11 16  1  0  0  0  0
 11 17  1  0  0  0  0
  9 18  1  0  0  0  0
  9 19  1  0  0  0  0
M  END
> <CAS>
111-91-1

> <NAME>
BIS(2-CHLOROETHOXY)METHANE

> <preferred_name>
Bis(2-chloroethoxy)methane

> <iupac>
1-chloro-2-[(2-chloroethoxy)methoxy]ethane

> <SMILES>
ClCCOCOCCCl

> <Canonical_QSARr>
ClCCOCOCCCl

> <InChI_Code_QSARr>
InChI=1S/C5H10Cl2O2/c6-1-3-8-5-9-4-2-7/h1-5H2

> <InChI Key_QSARr>
NLXGURFLBLRZRO-UHFFFAOYSA-N

> <Salt_Solvent>
?

> <WS Temperature>
20

> <WS Reference>
BEILSTEIN

> <dsstox_substance_id>
DTXSID4023917

> <LogMolar>
-1.3461

$$$$
112-07-2
  -INDIGO-01081615412D

 27 26  0  0  0  0  0  0  0  0999 V2000
   -5.5425   -0.0000    0.0000 C   0  0  0  0  0  0  0  0  0  0  0  0
   -6.9282   -0.8000    0.0000 O   0  0  0  0  0  0  0  0  0  0  0  0
   -8.3139   -0.0000    0.0000 C   0  0  0  0  0  0  0  0  0  0  0  0
   -9.6994   -0.8000    0.0000 C   0  0  0  0  0  0  0  0  0  0  0  0
  -11.0851   -1.6000    0.0000 H   0  0  0  0  0  0  0  0  0  0  0  0
  -11.0851   -0.0000    0.0000 H   0  0  0  0  0  0  0  0  0  0  0  0
   -9.6994   -2.4000    0.0000 H   0  0  0  0  0  0  0  0  0  0  0  0
   -8.3139    1.6000    0.0000 O   0  0  0  0  0  0  0  0  0  0  0  0
   -4.1568    0.8000    0.0000 C   0  0  0  0  0  0  0  0  0  0  0  0
   -2.7714    1.6000    0.0000 O   0  0  0  0  0  0  0  0  0  0  0  0
   -1.3857    0.8000    0.0000 C   0  0  0  0  0  0  0  0  0  0  0  0
    0.0000   -0.0000    0.0000 C   0  0  0  0  0  0  0  0  0  0  0  0
    1.3857   -0.8000    0.0000 C   0  0  0  0  0  0  0  0  0  0  0  0
    2.7712   -1.6000    0.0000 C   0  0  0  0  0  0  0  0  0  0  0  0
    4.1569   -2.4000    0.0000 H   0  0  0  0  0  0  0  0  0  0  0  0
    2.7712   -3.2000    0.0000 H   0  0  0  0  0  0  0  0  0  0  0  0
    4.1569   -0.8000    0.0000 H   0  0  0  0  0  0  0  0  0  0  0  0
    0.5857   -2.1857    0.0000 H   0  0  0  0  0  0  0  0  0  0  0  0
    2.1856    0.5856    0.0000 H   0  0  0  0  0  0  0  0  0  0  0  0
    0.8001    1.3856    0.0000 H   0  0  0  0  0  0  0  0  0  0  0  0
   -0.8000   -1.3856    0.0000 H   0  0  0  0  0  0  0  0  0  0  0  0
   -2.1857   -0.5856    0.0000 H   0  0  0  0  0  0  0  0  0  0  0  0
   -0.5856    2.1856    0.0000 H   0  0  0  0  0  0  0  0  0  0  0  0
   -4.9569    2.1856    0.0000 H   0  0  0  0  0  0  0  0  0  0  0  0
   -3.3570   -0.5856    0.0000 H   0  0  0  0  0  0  0  0  0  0  0  0
   -6.3426    1.3856    0.0000 H   0  0  0  0  0  0  0  0  0  0  0  0
   -4.7425   -1.3856    0.0000 H   0  0  0  0  0  0  0  0  0  0  0  0
  1  2  1  0  0  0  0
  2  3  1  0  0  0  0
  3  4  1  0  0  0  0
  4  5  1  0  0  0  0
  4  6  1  0  0  0  0
  4  7  1  0  0  0  0
  3  8  2  0  0  0  0
  1  9  1  0  0  0  0
  9 10  1  0  0  0  0
 10 11  1  0  0  0  0
 11 12  1  0  0  0  0
 12 13  1  0  0  0  0
 13 14  1  0  0  0  0
 14 15  1  0  0  0  0
 14 16  1  0  0  0  0
 14 17  1  0  0  0  0
 13 18  1  0  0  0  0
 13 19  1  0  0  0  0
 12 20  1  0  0  0  0
 12 21  1  0  0  0  0
 11 22  1  0  0  0  0
 11 23  1  0  0  0  0
  9 24  1  0  0  0  0
  9 25  1  0  0  0  0
  1 26  1  0  0  0  0
  1 27  1  0  0  0  0
M  END
> <CAS>
112-07-2

> <NAME>
2-BUTOXYETHANOL ACETATE

> <preferred_name>
2-Butoxyethyl acetate

> <iupac>
2-butoxyethyl acetate

> <SMILES>
CCCCOCCOC(C)=O

> <Canonical_QSARr>
CCCCOCCOC(C)=O

> <InChI_Code_QSARr>
InChI=1S/C8H16O3/c1-3-4-5-10-6-7-11-8(2)9/h3-7H2,1-2H3

> <InChI Key_QSARr>
NQBXSWAWVZHKBZ-UHFFFAOYSA-N

> <Salt_Solvent>
?

> <WS Temperature>
20

> <WS Reference>
YALKOWSKY,SH & DANNENFELSER,RM (1992)

> <dsstox_substance_id>
DTXSID1026904

> <LogMolar>
-1.2504

$$$$
112-26-5
  -INDIGO-01081615412D

 22 21  0  0  0  0  0  0  0  0999 V2000
    0.0001   -0.0000    0.0000 C   0  0  0  0  0  0  0  0  0  0  0  0
   -1.3856    0.8000    0.0000 O   0  0  0  0  0  0  0  0  0  0  0  0
   -2.7713   -0.0000    0.0000 C   0  0  0  0  0  0  0  0  0  0  0  0
   -4.1569   -0.8000    0.0000 C   0  0  0  0  0  0  0  0  0  0  0  0
   -5.5426   -1.6000    0.0000 Cl  0  0  0  0  0  0  0  0  0  0  0  0
   -5.5426   -0.0000    0.0000 H   0  0  0  0  0  0  0  0  0  0  0  0
   -4.1569   -2.4000    0.0000 H   0  0  0  0  0  0  0  0  0  0  0  0
   -3.5713    1.3856    0.0000 H   0  0  0  0  0  0  0  0  0  0  0  0
   -1.9714   -1.3856    0.0000 H   0  0  0  0  0  0  0  0  0  0  0  0
    1.3856   -0.8000    0.0000 C   0  0  0  0  0  0  0  0  0  0  0  0
    2.7713   -1.6000    0.0000 O   0  0  0  0  0  0  0  0  0  0  0  0
    4.1570   -0.8000    0.0000 C   0  0  0  0  0  0  0  0  0  0  0  0
    5.5425   -0.0000    0.0000 C   0  0  0  0  0  0  0  0  0  0  0  0
    6.9282    0.8000    0.0000 Cl  0  0  0  0  0  0  0  0  0  0  0  0
    6.9282   -0.8000    0.0000 H   0  0  0  0  0  0  0  0  0  0  0  0
    5.5425    1.6000    0.0000 H   0  0  0  0  0  0  0  0  0  0  0  0
    4.9570   -2.1856    0.0000 H   0  0  0  0  0  0  0  0  0  0  0  0
    3.3570    0.5856    0.0000 H   0  0  0  0  0  0  0  0  0  0  0  0
    0.5856   -2.1856    0.0000 H   0  0  0  0  0  0  0  0  0  0  0  0
    2.1856    0.5856    0.0000 H   0  0  0  0  0  0  0  0  0  0  0  0
    0.8000    1.3856    0.0000 H   0  0  0  0  0  0  0  0  0  0  0  0
   -0.7999   -1.3856    0.0000 H   0  0  0  0  0  0  0  0  0  0  0  0
  1  2  1  0  0  0  0
  2  3  1  0  0  0  0
  3  4  1  0  0  0  0
  4  5  1  0  0  0  0
  4  6  1  0  0  0  0
  4  7  1  0  0  0  0
  3  8  1  0  0  0  0
  3  9  1  0  0  0  0
  1 10  1  0  0  0  0
 10 11  1  0  0  0  0
 11 12  1  0  0  0  0
 12 13  1  0  0  0  0
 13 14  1  0  0  0  0
 13 15  1  0  0  0  0
 13 16  1  0  0  0  0
 12 17  1  0  0  0  0
 12 18  1  0  0  0  0
 10 19  1  0  0  0  0
 10 20  1  0  0  0  0
  1 21  1  0  0  0  0
  1 22  1  0  0  0  0
M  END
> <CAS>
112-26-5

> <NAME>
1,2-BIS(2-CHLOROETHOXY)ETHANE

> <preferred_name>
1,2-Bis(2-chloroethoxy)ethane

> <iupac>
1-chloro-2-[2-(2-chloroethoxy)ethoxy]ethane

> <SMILES>
ClCCOCCOCCCl

> <Canonical_QSARr>
ClCCOCCOCCCl

> <InChI_Code_QSARr>
InChI=1S/C6H12Cl2O2/c7-1-3-9-5-6-10-4-2-8/h1-6H2

> <InChI Key_QSARr>
AGYUOJIYYGGHKV-UHFFFAOYSA-N

> <Salt_Solvent>
?

> <WS Temperature>
20

> <WS Reference>
FLICK,EW (1991)

> <dsstox_substance_id>
DTXSID8047000

> <LogMolar>
-0.9955

$$$$
112-35-6
  -INDIGO-01081615412D

 27 26  0  0  0  0  0  0  0  0999 V2000
    5.5427    0.0000    0.0000 C   0  0  0  0  0  0  0  0  0  0  0  0
    6.9283    0.8000    0.0000 O   0  0  0  0  0  0  0  0  0  0  0  0
    8.3138    0.0000    0.0000 H   0  0  0  0  0  0  0  0  0  0  0  0
    4.1569   -0.8000    0.0000 C   0  0  0  0  0  0  0  0  0  0  0  0
    2.7713   -1.6000    0.0000 O   0  0  0  0  0  0  0  0  0  0  0  0
    1.3857   -0.8000    0.0000 C   0  0  0  0  0  0  0  0  0  0  0  0
    0.0001    0.0000    0.0000 C   0  0  0  0  0  0  0  0  0  0  0  0
   -1.3857    0.8000    0.0000 O   0  0  0  0  0  0  0  0  0  0  0  0
   -2.7713    0.0000    0.0000 C   0  0  0  0  0  0  0  0  0  0  0  0
   -4.1569   -0.8000    0.0000 C   0  0  0  0  0  0  0  0  0  0  0  0
   -5.5424   -1.6000    0.0000 O   0  0  0  0  0  0  0  0  0  0  0  0
   -6.9283   -0.8000    0.0000 C   0  0  0  0  0  0  0  0  0  0  0  0
   -8.3138    0.0000    0.0000 H   0  0  0  0  0  0  0  0  0  0  0  0
   -8.3138   -1.6000    0.0000 H   0  0  0  0  0  0  0  0  0  0  0  0
   -6.9283    0.8000    0.0000 H   0  0  0  0  0  0  0  0  0  0  0  0
   -4.9568    0.5857    0.0000 H   0  0  0  0  0  0  0  0  0  0  0  0
   -3.3569   -2.1856    0.0000 H   0  0  0  0  0  0  0  0  0  0  0  0
   -3.5713    1.3856    0.0000 H   0  0  0  0  0  0  0  0  0  0  0  0
   -1.9713   -1.3857    0.0000 H   0  0  0  0  0  0  0  0  0  0  0  0
    0.8001    1.3856    0.0000 H   0  0  0  0  0  0  0  0  0  0  0  0
   -0.8001   -1.3857    0.0000 H   0  0  0  0  0  0  0  0  0  0  0  0
    0.5857   -2.1856    0.0000 H   0  0  0  0  0  0  0  0  0  0  0  0
    2.1857    0.5857    0.0000 H   0  0  0  0  0  0  0  0  0  0  0  0
    4.9568   -2.1856    0.0000 H   0  0  0  0  0  0  0  0  0  0  0  0
    3.3569    0.5857    0.0000 H   0  0  0  0  0  0  0  0  0  0  0  0
    6.3427   -1.3857    0.0000 H   0  0  0  0  0  0  0  0  0  0  0  0
    4.7424    1.3856    0.0000 H   0  0  0  0  0  0  0  0  0  0  0  0
  1  2  1  0  0  0  0
  2  3  1  0  0  0  0
  1  4  1  0  0  0  0
  4  5  1  0  0  0  0
  5  6  1  0  0  0  0
  6  7  1  0  0  0  0
  7  8  1  0  0  0  0
  8  9  1  0  0  0  0
  9 10  1  0  0  0  0
 10 11  1  0  0  0  0
 11 12  1  0  0  0  0
 12 13  1  0  0  0  0
 12 14  1  0  0  0  0
 12 15  1  0  0  0  0
 10 16  1  0  0  0  0
 10 17  1  0  0  0  0
  9 18  1  0  0  0  0
  9 19  1  0  0  0  0
  7 20  1  0  0  0  0
  7 21  1  0  0  0  0
  6 22  1  0  0  0  0
  6 23  1  0  0  0  0
  4 24  1  0  0  0  0
  4 25  1  0  0  0  0
  1 26  1  0  0  0  0
  1 27  1  0  0  0  0
M  END
> <CAS>
112-35-6

> <NAME>
METHOXY TRIETHYLENE GLYCOL

> <preferred_name>
2-[2-(2-Methoxyethoxy)ethoxy]ethanol

> <iupac>
2-[2-(2-methoxyethoxy)ethoxy]ethanol

> <SMILES>
COCCOCCOCCO

> <Canonical_QSARr>
COCCOCCOCCO

> <InChI_Code_QSARr>
InChI=1S/C7H16O4/c1-9-4-5-11-7-6-10-3-2-8/h8H,2-7H2,1H3

> <InChI Key_QSARr>
JLGLQAWTXXGVEM-UHFFFAOYSA-N

> <Salt_Solvent>
?

> <WS Temperature>
25

> <WS Reference>
DOW CHEMICAL COMPANY (1990)

> <dsstox_substance_id>
DTXSID5026912

> <LogMolar>
0.7846

$$$$
112-53-8
  -INDIGO-01081615412D

 39 38  0  0  0  0  0  0  0  0999 V2000
   -7.9999   -0.0000    0.0000 C   0  0  0  0  0  0  0  0  0  0  0  0
   -9.6001   -0.0000    0.0000 O   0  0  0  0  0  0  0  0  0  0  0  0
  -10.4000   -1.3856    0.0000 H   0  0  0  0  0  0  0  0  0  0  0  0
   -6.4000   -0.0000    0.0000 C   0  0  0  0  0  0  0  0  0  0  0  0
   -4.7999   -0.0000    0.0000 C   0  0  0  0  0  0  0  0  0  0  0  0
   -3.2000    0.0000    0.0000 C   0  0  0  0  0  0  0  0  0  0  0  0
   -1.6001    0.0000    0.0000 C   0  0  0  0  0  0  0  0  0  0  0  0
    0.0000    0.0000    0.0000 C   0  0  0  0  0  0  0  0  0  0  0  0
    1.5999    0.0000    0.0000 C   0  0  0  0  0  0  0  0  0  0  0  0
    3.2001    0.0000    0.0000 C   0  0  0  0  0  0  0  0  0  0  0  0
    4.7999    0.0000    0.0000 C   0  0  0  0  0  0  0  0  0  0  0  0
    6.4001    0.0000    0.0000 C   0  0  0  0  0  0  0  0  0  0  0  0
    8.0000    0.0000    0.0000 C   0  0  0  0  0  0  0  0  0  0  0  0
    9.6001    0.0000    0.0000 C   0  0  0  0  0  0  0  0  0  0  0  0
   11.2000    0.0000    0.0000 H   0  0  0  0  0  0  0  0  0  0  0  0
   10.4001    1.3856    0.0000 H   0  0  0  0  0  0  0  0  0  0  0  0
   10.4001   -1.3856    0.0000 H   0  0  0  0  0  0  0  0  0  0  0  0
    8.0000   -1.6000    0.0000 H   0  0  0  0  0  0  0  0  0  0  0  0
    8.0000    1.6000    0.0000 H   0  0  0  0  0  0  0  0  0  0  0  0
    6.4001   -1.6000    0.0000 H   0  0  0  0  0  0  0  0  0  0  0  0
    6.4001    1.6000    0.0000 H   0  0  0  0  0  0  0  0  0  0  0  0
    4.7999    1.6000    0.0000 H   0  0  0  0  0  0  0  0  0  0  0  0
    4.7999   -1.6000    0.0000 H   0  0  0  0  0  0  0  0  0  0  0  0
    3.2001   -1.6000    0.0000 H   0  0  0  0  0  0  0  0  0  0  0  0
    3.2001    1.6000    0.0000 H   0  0  0  0  0  0  0  0  0  0  0  0
    1.5999   -1.6000    0.0000 H   0  0  0  0  0  0  0  0  0  0  0  0
    1.5999    1.6000    0.0000 H   0  0  0  0  0  0  0  0  0  0  0  0
    0.0000    1.6000    0.0000 H   0  0  0  0  0  0  0  0  0  0  0  0
    0.0000   -1.6000    0.0000 H   0  0  0  0  0  0  0  0  0  0  0  0
   -1.6001   -1.6000    0.0000 H   0  0  0  0  0  0  0  0  0  0  0  0
   -1.6001    1.6000    0.0000 H   0  0  0  0  0  0  0  0  0  0  0  0
   -3.2000    1.6000    0.0000 H   0  0  0  0  0  0  0  0  0  0  0  0
   -3.2000   -1.6000    0.0000 H   0  0  0  0  0  0  0  0  0  0  0  0
   -4.7999   -1.6000    0.0000 H   0  0  0  0  0  0  0  0  0  0  0  0
   -4.7999    1.6000    0.0000 H   0  0  0  0  0  0  0  0  0  0  0  0
   -6.4000   -1.6000    0.0000 H   0  0  0  0  0  0  0  0  0  0  0  0
   -6.4000    1.6000    0.0000 H   0  0  0  0  0  0  0  0  0  0  0  0
   -7.9999   -1.6000    0.0000 H   0  0  0  0  0  0  0  0  0  0  0  0
   -7.9999    1.6000    0.0000 H   0  0  0  0  0  0  0  0  0  0  0  0
  1  2  1  0  0  0  0
  2  3  1  0  0  0  0
  1  4  1  0  0  0  0
  4  5  1  0  0  0  0
  5  6  1  0  0  0  0
  6  7  1  0  0  0  0
  7  8  1  0  0  0  0
  8  9  1  0  0  0  0
  9 10  1  0  0  0  0
 10 11  1  0  0  0  0
 11 12  1  0  0  0  0
 12 13  1  0  0  0  0
 13 14  1  0  0  0  0
 14 15  1  0  0  0  0
 14 16  1  0  0  0  0
 14 17  1  0  0  0  0
 13 18  1  0  0  0  0
 13 19  1  0  0  0  0
 12 20  1  0  0  0  0
 12 21  1  0  0  0  0
 11 22  1  0  0  0  0
 11 23  1  0  0  0  0
 10 24  1  0  0  0  0
 10 25  1  0  0  0  0
  9 26  1  0  0  0  0
  9 27  1  0  0  0  0
  8 28  1  0  0  0  0
  8 29  1  0  0  0  0
  7 30  1  0  0  0  0
  7 31  1  0  0  0  0
  6 32  1  0  0  0  0
  6 33  1  0  0  0  0
  5 34  1  0  0  0  0
  5 35  1  0  0  0  0
  4 36  1  0  0  0  0
  4 37  1  0  0  0  0
  1 38  1  0  0  0  0
  1 39  1  0  0  0  0
M  END
> <CAS>
112-53-8

> <NAME>
DODECANOL

> <preferred_name>
1-Dodecanol

> <iupac>
dodecan-1-ol

> <SMILES>
CCCCCCCCCCCCO

> <Canonical_QSARr>
CCCCCCCCCCCCO

> <InChI_Code_QSARr>
InChI=1S/C12H26O/c1-2-3-4-5-6-7-8-9-10-11-12-13/h13H,2-12H2,1H3

> <InChI Key_QSARr>
LQZZUXJYWNFBMV-UHFFFAOYSA-N

> <Salt_Solvent>
?

> <WS Temperature>
25

> <WS Reference>
BARTON,AFM (1984)

> <dsstox_substance_id>
DTXSID5026918

> <LogMolar>
-4.6682

$$$$
112-65-2
  -INDIGO-01081615412D

 45 44  0  0  0  0  0  0  0  0999 V2000
  -10.4002   -1.3857    0.0000 C   0  0  0  0  0  0  0  0  0  0  0  0
  -11.9998   -1.3857    0.0000 N   0  0  0  0  0  0  0  0  0  0  0  0
  -12.8000   -2.7713    0.0000 H   0  0  0  0  0  0  0  0  0  0  0  0
  -12.8000   -0.0000    0.0000 H   0  0  0  0  0  0  0  0  0  0  0  0
   -9.6000   -0.0000    0.0000 N   0  0  0  0  0  0  0  0  0  0  0  0
   -8.0000   -0.0000    0.0000 C   0  0  0  0  0  0  0  0  0  0  0  0
   -6.4000   -0.0000    0.0000 C   0  0  0  0  0  0  0  0  0  0  0  0
   -4.8000   -0.0000    0.0000 C   0  0  0  0  0  0  0  0  0  0  0  0
   -3.2000   -0.0000    0.0000 C   0  0  0  0  0  0  0  0  0  0  0  0
   -1.6000   -0.0000    0.0000 C   0  0  0  0  0  0  0  0  0  0  0  0
    0.0000   -0.0000    0.0000 C   0  0  0  0  0  0  0  0  0  0  0  0
    1.6000   -0.0000    0.0000 C   0  0  0  0  0  0  0  0  0  0  0  0
    3.2000   -0.0000    0.0000 C   0  0  0  0  0  0  0  0  0  0  0  0
    4.8000   -0.0000    0.0000 C   0  0  0  0  0  0  0  0  0  0  0  0
    6.4000   -0.0000    0.0000 C   0  0  0  0  0  0  0  0  0  0  0  0
    8.0000   -0.0000    0.0000 C   0  0  0  0  0  0  0  0  0  0  0  0
    9.6000   -0.0000    0.0000 C   0  0  0  0  0  0  0  0  0  0  0  0
   11.2000   -0.0000    0.0000 H   0  0  0  0  0  0  0  0  0  0  0  0
   10.4002    1.3857    0.0000 H   0  0  0  0  0  0  0  0  0  0  0  0
   10.4002   -1.3857    0.0000 H   0  0  0  0  0  0  0  0  0  0  0  0
    8.0000    1.6000    0.0000 H   0  0  0  0  0  0  0  0  0  0  0  0
    8.0000   -1.6000    0.0000 H   0  0  0  0  0  0  0  0  0  0  0  0
    6.4000    1.6000    0.0000 H   0  0  0  0  0  0  0  0  0  0  0  0
    6.4000   -1.6000    0.0000 H   0  0  0  0  0  0  0  0  0  0  0  0
    4.8000   -1.6000    0.0000 H   0  0  0  0  0  0  0  0  0  0  0  0
    4.8000    1.6000    0.0000 H   0  0  0  0  0  0  0  0  0  0  0  0
    3.2000   -1.6000    0.0000 H   0  0  0  0  0  0  0  0  0  0  0  0
    3.2000    1.6000    0.0000 H   0  0  0  0  0  0  0  0  0  0  0  0
    1.6000   -1.6000    0.0000 H   0  0  0  0  0  0  0  0  0  0  0  0
    1.6000    1.6000    0.0000 H   0  0  0  0  0  0  0  0  0  0  0  0
    0.0000    1.6000    0.0000 H   0  0  0  0  0  0  0  0  0  0  0  0
    0.0000   -1.6000    0.0000 H   0  0  0  0  0  0  0  0  0  0  0  0
   -1.6000   -1.6000    0.0000 H   0  0  0  0  0  0  0  0  0  0  0  0
   -1.6000    1.6000    0.0000 H   0  0  0  0  0  0  0  0  0  0  0  0
   -3.2000    1.6000    0.0000 H   0  0  0  0  0  0  0  0  0  0  0  0
   -3.2000   -1.6000    0.0000 H   0  0  0  0  0  0  0  0  0  0  0  0
   -4.8000   -1.6000    0.0000 H   0  0  0  0  0  0  0  0  0  0  0  0
   -4.8000    1.6000    0.0000 H   0  0  0  0  0  0  0  0  0  0  0  0
   -6.4000   -1.6000    0.0000 H   0  0  0  0  0  0  0  0  0  0  0  0
   -6.4000    1.6000    0.0000 H   0  0  0  0  0  0  0  0  0  0  0  0
   -8.0000   -1.6000    0.0000 H   0  0  0  0  0  0  0  0  0  0  0  0
   -8.0000    1.6000    0.0000 H   0  0  0  0  0  0  0  0  0  0  0  0
  -10.4002    1.3857    0.0000 H   0  0  0  0  0  0  0  0  0  0  0  0
   -9.6000   -2.7713    0.0000 N   0  0  0  0  0  0  0  0  0  0  0  0
  -10.4002   -4.1569    0.0000 H   0  0  0  0  0  0  0  0  0  0  0  0
  1  2  1  0  0  0  0
  2  3  1  0  0  0  0
  2  4  1  0  0  0  0
  1  5  1  0  0  0  0
  5  6  1  0  0  0  0
  6  7  1  0  0  0  0
  7  8  1  0  0  0  0
  8  9  1  0  0  0  0
  9 10  1  0  0  0  0
 10 11  1  0  0  0  0
 11 12  1  0  0  0  0
 12 13  1  0  0  0  0
 13 14  1  0  0  0  0
 14 15  1  0  0  0  0
 15 16  1  0  0  0  0
 16 17  1  0  0  0  0
 17 18  1  0  0  0  0
 17 19  1  0  0  0  0
 17 20  1  0  0  0  0
 16 21  1  0  0  0  0
 16 22  1  0  0  0  0
 15 23  1  0  0  0  0
 15 24  1  0  0  0  0
 14 25  1  0  0  0  0
 14 26  1  0  0  0  0
 13 27  1  0  0  0  0
 13 28  1  0  0  0  0
 12 29  1  0  0  0  0
 12 30  1  0  0  0  0
 11 31  1  0  0  0  0
 11 32  1  0  0  0  0
 10 33  1  0  0  0  0
 10 34  1  0  0  0  0
  9 35  1  0  0  0  0
  9 36  1  0  0  0  0
  8 37  1  0  0  0  0
  8 38  1  0  0  0  0
  7 39  1  0  0  0  0
  7 40  1  0  0  0  0
  6 41  1  0  0  0  0
  6 42  1  0  0  0  0
  5 43  1  0  0  0  0
  1 44  2  0  0  0  0
 44 45  1  0  0  0  0
M  END
> <CAS>
112-65-2

> <NAME>
Dodine

> <preferred_name>
Dodecylguanidine

> <iupac>
1-dodecylguanidine

> <SMILES>
CCCCCCCCCCCCNC(N)=N

> <Canonical_QSARr>
CCCCCCCCCCCCNC(N)=N

> <InChI_Code_QSARr>
InChI=1S/C13H29N3/c1-2-3-4-5-6-7-8-9-10-11-12-16-13(14)15/h2-12H2,1H3,(H4,14,15,16)

> <InChI Key_QSARr>
HILAYQUKKYWPJW-UHFFFAOYSA-N

> <Salt_Solvent>
?

> <WS Temperature>
25

> <WS Reference>
TOMLIN,C (1994)

> <dsstox_substance_id>
DTXSID8041907

> <LogMolar>
-2.5574

$$$$
112-92-5
  -INDIGO-01081615412D

 57 56  0  0  0  0  0  0  0  0999 V2000
  -11.2001   -0.0000    0.0000 C   0  0  0  0  0  0  0  0  0  0  0  0
  -12.8002   -0.0000    0.0000 O   0  0  0  0  0  0  0  0  0  0  0  0
  -13.6000   -1.3856    0.0000 H   0  0  0  0  0  0  0  0  0  0  0  0
   -9.6000   -0.0000    0.0000 C   0  0  0  0  0  0  0  0  0  0  0  0
   -7.9999   -0.0000    0.0000 C   0  0  0  0  0  0  0  0  0  0  0  0
   -6.4002   -0.0000    0.0000 C   0  0  0  0  0  0  0  0  0  0  0  0
   -4.8001    0.0000    0.0000 C   0  0  0  0  0  0  0  0  0  0  0  0
   -3.2000    0.0000    0.0000 C   0  0  0  0  0  0  0  0  0  0  0  0
   -1.5999    0.0000    0.0000 C   0  0  0  0  0  0  0  0  0  0  0  0
    0.0002    0.0000    0.0000 C   0  0  0  0  0  0  0  0  0  0  0  0
    1.5999    0.0000    0.0000 C   0  0  0  0  0  0  0  0  0  0  0  0
    3.2000    0.0000    0.0000 C   0  0  0  0  0  0  0  0  0  0  0  0
    4.8001    0.0000    0.0000 C   0  0  0  0  0  0  0  0  0  0  0  0
    6.4002    0.0000    0.0000 C   0  0  0  0  0  0  0  0  0  0  0  0
    7.9998    0.0000    0.0000 C   0  0  0  0  0  0  0  0  0  0  0  0
    9.5999    0.0000    0.0000 C   0  0  0  0  0  0  0  0  0  0  0  0
   11.2000    0.0000    0.0000 C   0  0  0  0  0  0  0  0  0  0  0  0
   12.8001    0.0000    0.0000 C   0  0  0  0  0  0  0  0  0  0  0  0
   14.3998    0.0000    0.0000 C   0  0  0  0  0  0  0  0  0  0  0  0
   15.9999    0.0000    0.0000 C   0  0  0  0  0  0  0  0  0  0  0  0
   17.6000    0.0000    0.0000 H   0  0  0  0  0  0  0  0  0  0  0  0
   16.8002    1.3856    0.0000 H   0  0  0  0  0  0  0  0  0  0  0  0
   16.8002   -1.3856    0.0000 H   0  0  0  0  0  0  0  0  0  0  0  0
   14.3998   -1.6000    0.0000 H   0  0  0  0  0  0  0  0  0  0  0  0
   14.3998    1.6000    0.0000 H   0  0  0  0  0  0  0  0  0  0  0  0
   12.8001   -1.6000    0.0000 H   0  0  0  0  0  0  0  0  0  0  0  0
   12.8001    1.6000    0.0000 H   0  0  0  0  0  0  0  0  0  0  0  0
   11.2000   -1.6000    0.0000 H   0  0  0  0  0  0  0  0  0  0  0  0
   11.2000    1.6000    0.0000 H   0  0  0  0  0  0  0  0  0  0  0  0
    9.5999   -1.6000    0.0000 H   0  0  0  0  0  0  0  0  0  0  0  0
    9.5999    1.6000    0.0000 H   0  0  0  0  0  0  0  0  0  0  0  0
    7.9998   -1.6000    0.0000 H   0  0  0  0  0  0  0  0  0  0  0  0
    7.9998    1.6000    0.0000 H   0  0  0  0  0  0  0  0  0  0  0  0
    6.4002   -1.6000    0.0000 H   0  0  0  0  0  0  0  0  0  0  0  0
    6.4002    1.6000    0.0000 H   0  0  0  0  0  0  0  0  0  0  0  0
    4.8001   -1.6000    0.0000 H   0  0  0  0  0  0  0  0  0  0  0  0
    4.8001    1.6000    0.0000 H   0  0  0  0  0  0  0  0  0  0  0  0
    3.2000   -1.6000    0.0000 H   0  0  0  0  0  0  0  0  0  0  0  0
    3.2000    1.6000    0.0000 H   0  0  0  0  0  0  0  0  0  0  0  0
    1.5999   -1.6000    0.0000 H   0  0  0  0  0  0  0  0  0  0  0  0
    1.5999    1.6000    0.0000 H   0  0  0  0  0  0  0  0  0  0  0  0
    0.0002    1.6000    0.0000 H   0  0  0  0  0  0  0  0  0  0  0  0
    0.0002   -1.6000    0.0000 H   0  0  0  0  0  0  0  0  0  0  0  0
   -1.5999   -1.6000    0.0000 H   0  0  0  0  0  0  0  0  0  0  0  0
   -1.5999    1.6000    0.0000 H   0  0  0  0  0  0  0  0  0  0  0  0
   -3.2000    1.6000    0.0000 H   0  0  0  0  0  0  0  0  0  0  0  0
   -3.2000   -1.6000    0.0000 H   0  0  0  0  0  0  0  0  0  0  0  0
   -4.8001   -1.6000    0.0000 H   0  0  0  0  0  0  0  0  0  0  0  0
   -4.8001    1.6000    0.0000 H   0  0  0  0  0  0  0  0  0  0  0  0
   -6.4002   -1.6000    0.0000 H   0  0  0  0  0  0  0  0  0  0  0  0
   -6.4002    1.6000    0.0000 H   0  0  0  0  0  0  0  0  0  0  0  0
   -7.9999   -1.6000    0.0000 H   0  0  0  0  0  0  0  0  0  0  0  0
   -7.9999    1.6000    0.0000 H   0  0  0  0  0  0  0  0  0  0  0  0
   -9.6000   -1.6000    0.0000 H   0  0  0  0  0  0  0  0  0  0  0  0
   -9.6000    1.6000    0.0000 H   0  0  0  0  0  0  0  0  0  0  0  0
  -11.2001   -1.6000    0.0000 H   0  0  0  0  0  0  0  0  0  0  0  0
  -11.2001    1.6000    0.0000 H   0  0  0  0  0  0  0  0  0  0  0  0
  1  2  1  0  0  0  0
  2  3  1  0  0  0  0
  1  4  1  0  0  0  0
  4  5  1  0  0  0  0
  5  6  1  0  0  0  0
  6  7  1  0  0  0  0
  7  8  1  0  0  0  0
  8  9  1  0  0  0  0
  9 10  1  0  0  0  0
 10 11  1  0  0  0  0
 11 12  1  0  0  0  0
 12 13  1  0  0  0  0
 13 14  1  0  0  0  0
 14 15  1  0  0  0  0
 15 16  1  0  0  0  0
 16 17  1  0  0  0  0
 17 18  1  0  0  0  0
 18 19  1  0  0  0  0
 19 20  1  0  0  0  0
 20 21  1  0  0  0  0
 20 22  1  0  0  0  0
 20 23  1  0  0  0  0
 19 24  1  0  0  0  0
 19 25  1  0  0  0  0
 18 26  1  0  0  0  0
 18 27  1  0  0  0  0
 17 28  1  0  0  0  0
 17 29  1  0  0  0  0
 16 30  1  0  0  0  0
 16 31  1  0  0  0  0
 15 32  1  0  0  0  0
 15 33  1  0  0  0  0
 14 34  1  0  0  0  0
 14 35  1  0  0  0  0
 13 36  1  0  0  0  0
 13 37  1  0  0  0  0
 12 38  1  0  0  0  0
 12 39  1  0  0  0  0
 11 40  1  0  0  0  0
 11 41  1  0  0  0  0
 10 42  1  0  0  0  0
 10 43  1  0  0  0  0
  9 44  1  0  0  0  0
  9 45  1  0  0  0  0
  8 46  1  0  0  0  0
  8 47  1  0  0  0  0
  7 48  1  0  0  0  0
  7 49  1  0  0  0  0
  6 50  1  0  0  0  0
  6 51  1  0  0  0  0
  5 52  1  0  0  0  0
  5 53  1  0  0  0  0
  4 54  1  0  0  0  0
  4 55  1  0  0  0  0
  1 56  1  0  0  0  0
  1 57  1  0  0  0  0
M  END
> <CAS>
112-92-5

> <NAME>
1-OCTADECANOL

> <preferred_name>
1-Octadecanol

> <iupac>
octadecan-1-ol

> <SMILES>
CCCCCCCCCCCCCCCCCCO

> <Canonical_QSARr>
CCCCCCCCCCCCCCCCCCO

> <InChI_Code_QSARr>
InChI=1S/C18H38O/c1-2-3-4-5-6-7-8-9-10-11-12-13-14-15-16-17-18-19/h19H,2-18H2,1H3

> <InChI Key_QSARr>
GLDOVTGHNKAZLK-UHFFFAOYSA-N

> <Salt_Solvent>
?

> <WS Temperature>
25

> <WS Reference>
YALKOWSKY,SH & VALVANI,SC (1980)

> <dsstox_substance_id>
DTXSID8026935

> <LogMolar>
-8.3908

$$$$
115-07-1
  -INDIGO-01081615412D

  9  8  0  0  0  0  0  0  0  0999 V2000
    0.0000    0.0000    0.0000 C   0  0  0  0  0  0  0  0  0  0  0  0
    1.3857   -0.8000    0.0000 C   0  0  0  0  0  0  0  0  0  0  0  0
    2.7713    0.0000    0.0000 C   0  0  0  0  0  0  0  0  0  0  0  0
    4.1569   -0.8000    0.0000 H   0  0  0  0  0  0  0  0  0  0  0  0
    2.7713    1.6000    0.0000 H   0  0  0  0  0  0  0  0  0  0  0  0
    1.3856   -2.4000    0.0000 H   0  0  0  0  0  0  0  0  0  0  0  0
   -1.3856    0.8000    0.0000 H   0  0  0  0  0  0  0  0  0  0  0  0
    0.0000    1.6000    0.0000 H   0  0  0  0  0  0  0  0  0  0  0  0
   -1.3856   -0.8000    0.0000 H   0  0  0  0  0  0  0  0  0  0  0  0
  1  2  1  0  0  0  0
  2  3  2  0  0  0  0
  3  4  1  0  0  0  0
  3  5  1  0  0  0  0
  2  6  1  0  0  0  0
  1  7  1  0  0  0  0
  1  8  1  0  0  0  0
  1  9  1  0  0  0  0
M  END
> <CAS>
115-07-1

> <NAME>
PROPENE

> <preferred_name>
1-Propene

> <iupac>
prop-1-ene

> <SMILES>
CC=C

> <Canonical_QSARr>
CC=C

> <InChI_Code_QSARr>
InChI=1S/C3H6/c1-3-2/h3H,1H2,2H3

> <InChI Key_QSARr>
QQONPFPTGQHPMA-UHFFFAOYSA-N

> <Salt_Solvent>
?

> <WS Temperature>
25

> <WS Reference>
MCAULIFFE,C (1966)

> <dsstox_substance_id>
DTXSID5021205

> <LogMolar>
-2.3231

$$$$
115-19-5
  -INDIGO-01081615412D

 14 13  0  0  0  0  0  0  0  0999 V2000
   -0.8000   -1.3856    0.0000 C   0  0  0  0  0  0  0  0  0  0  0  0
    0.0000    0.0000    0.0000 C   0  0  0  0  0  0  0  0  0  0  0  0
    1.3856   -0.8000    0.0000 C   0  0  0  0  0  0  0  0  0  0  0  0
    2.7713   -1.6000    0.0000 C   0  0  0  0  0  0  0  0  0  0  0  0
    4.1569   -2.4000    0.0000 H   0  0  0  0  0  0  0  0  0  0  0  0
    0.8000    1.3856    0.0000 C   0  0  0  0  0  0  0  0  0  0  0  0
    1.6000    2.7713    0.0000 H   0  0  0  0  0  0  0  0  0  0  0  0
    0.0000    2.7713    0.0000 H   0  0  0  0  0  0  0  0  0  0  0  0
    2.4000    1.3856    0.0000 H   0  0  0  0  0  0  0  0  0  0  0  0
   -1.3856    0.8000    0.0000 O   0  0  0  0  0  0  0  0  0  0  0  0
   -2.7713    0.0000    0.0000 H   0  0  0  0  0  0  0  0  0  0  0  0
   -1.6000   -2.7713    0.0000 H   0  0  0  0  0  0  0  0  0  0  0  0
   -2.4000   -1.3856    0.0000 H   0  0  0  0  0  0  0  0  0  0  0  0
    0.0000   -2.7713    0.0000 H   0  0  0  0  0  0  0  0  0  0  0  0
  1  2  1  0  0  0  0
  2  3  1  0  0  0  0
  3  4  3  0  0  0  0
  4  5  1  0  0  0  0
  2  6  1  0  0  0  0
  6  7  1  0  0  0  0
  6  8  1  0  0  0  0
  6  9  1  0  0  0  0
  2 10  1  0  0  0  0
 10 11  1  0  0  0  0
  1 12  1  0  0  0  0
  1 13  1  0  0  0  0
  1 14  1  0  0  0  0
M  END
> <CAS>
115-19-5

> <NAME>
2-METHYL-3-BUTYN-2-OL

> <preferred_name>
2-Methyl-3-butyn-2-ol

> <iupac>
2-methylbut-3-yn-2-ol

> <SMILES>
CC(C)(O)C#C

> <Canonical_QSARr>
CC(C)(O)C#C

> <InChI_Code_QSARr>
InChI=1S/C5H8O/c1-4-5(2,3)6/h1,6H,2-3H3

> <InChI Key_QSARr>
CEBKHWWANWSNTI-UHFFFAOYSA-N

> <Salt_Solvent>
?

> <WS Temperature>
25

> <WS Reference>
MERCK INDEX (1996)

> <dsstox_substance_id>
DTXSID2021949

> <LogMolar>
1.0751

$$$$
115-26-4
  -INDIGO-01081615412D

 21 20  0  0  0  0  0  0  0  0999 V2000
    0.0001    0.0000    0.0000 P   0  0  0  0  0  0  0  0  0  0  0  0
    0.0001    1.6000    0.0000 F   0  0  0  0  0  0  0  0  0  0  0  0
    0.0001   -1.6000    0.0000 O   0  0  0  0  0  0  0  0  0  0  0  0
   -1.5999   -0.0000    0.0000 N   0  0  0  0  0  0  0  0  0  0  0  0
   -2.4000   -1.3856    0.0000 C   0  0  0  0  0  0  0  0  0  0  0  0
   -3.1999   -2.7713    0.0000 H   0  0  0  0  0  0  0  0  0  0  0  0
   -4.0000   -1.3856    0.0000 H   0  0  0  0  0  0  0  0  0  0  0  0
   -1.5999   -2.7713    0.0000 H   0  0  0  0  0  0  0  0  0  0  0  0
   -2.4000    1.3856    0.0000 C   0  0  0  0  0  0  0  0  0  0  0  0
   -3.2001    2.7713    0.0000 H   0  0  0  0  0  0  0  0  0  0  0  0
   -4.0000    1.3856    0.0000 H   0  0  0  0  0  0  0  0  0  0  0  0
   -1.5999    2.7713    0.0000 H   0  0  0  0  0  0  0  0  0  0  0  0
    1.6001    0.0000    0.0000 N   0  0  0  0  0  0  0  0  0  0  0  0
    2.4000    1.3856    0.0000 C   0  0  0  0  0  0  0  0  0  0  0  0
    3.2001    2.7713    0.0000 H   0  0  0  0  0  0  0  0  0  0  0  0
    4.0000    1.3856    0.0000 H   0  0  0  0  0  0  0  0  0  0  0  0
    1.6001    2.7713    0.0000 H   0  0  0  0  0  0  0  0  0  0  0  0
    2.4000   -1.3856    0.0000 C   0  0  0  0  0  0  0  0  0  0  0  0
    3.2001   -2.7713    0.0000 H   0  0  0  0  0  0  0  0  0  0  0  0
    4.0000   -1.3856    0.0000 H   0  0  0  0  0  0  0  0  0  0  0  0
    1.6001   -2.7713    0.0000 H   0  0  0  0  0  0  0  0  0  0  0  0
  1  2  1  0  0  0  0
  1  3  2  0  0  0  0
  1  4  1  0  0  0  0
  4  5  1  0  0  0  0
  5  6  1  0  0  0  0
  5  7  1  0  0  0  0
  5  8  1  0  0  0  0
  4  9  1  0  0  0  0
  9 10  1  0  0  0  0
  9 11  1  0  0  0  0
  9 12  1  0  0  0  0
  1 13  1  0  0  0  0
 13 14  1  0  0  0  0
 14 15  1  0  0  0  0
 14 16  1  0  0  0  0
 14 17  1  0  0  0  0
 13 18  1  0  0  0  0
 18 19  1  0  0  0  0
 18 20  1  0  0  0  0
 18 21  1  0  0  0  0
M  END
> <CAS>
115-26-4

> <NAME>
DIMEFOX

> <preferred_name>
Dimefox

> <iupac>
N,N,N',N'-tetramethylphosphorodiamidic fluoride

> <SMILES>
CN(C)P(=O)(F)N(C)C

> <Canonical_QSARr>
CN(C)P(=O)(F)N(C)C

> <InChI_Code_QSARr>
InChI=1S/C4H12FN2OP/c1-6(2)9(5,8)7(3)4/h1-4H3

> <InChI Key_QSARr>
PGJBQBDNXAZHBP-UHFFFAOYSA-N

> <Salt_Solvent>
?

> <WS Temperature>
20

> <WS Reference>
GUNTHER,FA ET AL. (1968)

> <dsstox_substance_id>
DTXSID8041870

> <LogMolar>
0.8121

$$$$
115-76-4
  -INDIGO-01081615412D

 25 24  0  0  0  0  0  0  0  0999 V2000
    0.0001   -2.2400    0.0000 O   0  0  0  0  0  0  0  0  0  0  0  0
    0.0001   -0.6400    0.0000 C   0  0  0  0  0  0  0  0  0  0  0  0
    0.0001    0.0000    0.0000 C   0  0  0  0  0  0  0  0  0  0  0  0
    0.0001    0.6400    0.0000 C   0  0  0  0  0  0  0  0  0  0  0  0
    0.0001    2.2400    0.0000 O   0  0  0  0  0  0  0  0  0  0  0  0
    1.3857    3.0400    0.0000 H   0  0  0  0  0  0  0  0  0  0  0  0
   -1.3857    1.4400    0.0000 H   0  0  0  0  0  0  0  0  0  0  0  0
    1.2257    1.6684    0.0000 H   0  0  0  0  0  0  0  0  0  0  0  0
   -1.6000   -0.0000    0.0000 C   0  0  0  0  0  0  0  0  0  0  0  0
   -3.1999   -0.0000    0.0000 C   0  0  0  0  0  0  0  0  0  0  0  0
   -4.8000   -0.0000    0.0000 H   0  0  0  0  0  0  0  0  0  0  0  0
   -4.0000    1.3856    0.0000 H   0  0  0  0  0  0  0  0  0  0  0  0
   -4.0000   -1.3856    0.0000 H   0  0  0  0  0  0  0  0  0  0  0  0
   -2.4000    1.3856    0.0000 H   0  0  0  0  0  0  0  0  0  0  0  0
   -2.4000   -1.3856    0.0000 H   0  0  0  0  0  0  0  0  0  0  0  0
    1.6000    0.0000    0.0000 C   0  0  0  0  0  0  0  0  0  0  0  0
    3.2001    0.0000    0.0000 C   0  0  0  0  0  0  0  0  0  0  0  0
    4.8000    0.0000    0.0000 H   0  0  0  0  0  0  0  0  0  0  0  0
    4.0000   -1.3856    0.0000 H   0  0  0  0  0  0  0  0  0  0  0  0
    4.0000    1.3856    0.0000 H   0  0  0  0  0  0  0  0  0  0  0  0
    2.4000   -1.3856    0.0000 H   0  0  0  0  0  0  0  0  0  0  0  0
    2.4000    1.3856    0.0000 H   0  0  0  0  0  0  0  0  0  0  0  0
    1.3857   -1.4400    0.0000 H   0  0  0  0  0  0  0  0  0  0  0  0
   -1.3857   -1.4400    0.0000 H   0  0  0  0  0  0  0  0  0  0  0  0
   -1.3857   -3.0400    0.0000 H   0  0  0  0  0  0  0  0  0  0  0  0
  1  2  1  0  0  0  0
  2  3  1  0  0  0  0
  3  4  1  0  0  0  0
  4  5  1  0  0  0  0
  5  6  1  0  0  0  0
  4  7  1  0  0  0  0
  4  8  1  0  0  0  0
  3  9  1  0  0  0  0
  9 10  1  0  0  0  0
 10 11  1  0  0  0  0
 10 12  1  0  0  0  0
 10 13  1  0  0  0  0
  9 14  1  0  0  0  0
  9 15  1  0  0  0  0
  3 16  1  0  0  0  0
 16 17  1  0  0  0  0
 17 18  1  0  0  0  0
 17 19  1  0  0  0  0
 17 20  1  0  0  0  0
 16 21  1  0  0  0  0
 16 22  1  0  0  0  0
  2 23  1  0  0  0  0
  2 24  1  0  0  0  0
  1 25  1  0  0  0  0
M  END
> <CAS>
115-76-4

> <NAME>
2,2-DIETHYL-1,3-PROPANEDIOL

> <preferred_name>
Prenderol

> <iupac>
2,2-Diethylpropane-1,3-diol

> <SMILES>
CCC(CO)(CO)CC

> <Canonical_QSARr>
CCC(CO)(CO)CC

> <InChI_Code_QSARr>
InChI=1S/C7H16O2/c1-3-7(4-2,5-8)6-9/h8-9H,3-6H2,1-2H3

> <InChI Key_QSARr>
XRVCFZPJAHWYTB-UHFFFAOYSA-N

> <Salt_Solvent>
?

> <WS Temperature>
20

> <WS Reference>
BEILSTEIN

> <dsstox_substance_id>
DTXSID50150923

> <LogMolar>
0.1798

$$$$
115-89-9
  -INDIGO-01081615412D

 31 32  0  0  0  0  0  0  0  0999 V2000
   -0.0001   -0.0000    0.0000 P   0  0  0  0  0  0  0  0  0  0  0  0
    0.8000    1.3857    0.0000 O   0  0  0  0  0  0  0  0  0  0  0  0
   -0.0001    2.7712    0.0000 C   0  0  0  0  0  0  0  0  0  0  0  0
   -0.8000    4.1569    0.0000 H   0  0  0  0  0  0  0  0  0  0  0  0
    0.8000    4.1569    0.0000 H   0  0  0  0  0  0  0  0  0  0  0  0
   -1.6000    2.7712    0.0000 H   0  0  0  0  0  0  0  0  0  0  0  0
    1.3856   -0.8000    0.0000 O   0  0  0  0  0  0  0  0  0  0  0  0
    2.7714   -0.0000    0.0000 C   0  0  0  0  0  0  0  0  0  0  0  0
    4.1569   -0.8000    0.0000 C   0  0  0  0  0  0  0  0  0  0  0  0
    4.1569   -2.4000    0.0000 H   0  0  0  0  0  0  0  0  0  0  0  0
    5.5427   -0.0000    0.0000 C   0  0  0  0  0  0  0  0  0  0  0  0
    6.9282   -0.8000    0.0000 H   0  0  0  0  0  0  0  0  0  0  0  0
    5.5425    1.6000    0.0000 C   0  0  0  0  0  0  0  0  0  0  0  0
    6.9282    2.4000    0.0000 H   0  0  0  0  0  0  0  0  0  0  0  0
    4.1569    2.4000    0.0000 C   0  0  0  0  0  0  0  0  0  0  0  0
    4.1569    4.0000    0.0000 H   0  0  0  0  0  0  0  0  0  0  0  0
    2.7714    1.6000    0.0000 C   0  0  0  0  0  0  0  0  0  0  0  0
    1.3856    2.4000    0.0000 H   0  0  0  0  0  0  0  0  0  0  0  0
   -1.3856    0.8001    0.0000 O   0  0  0  0  0  0  0  0  0  0  0  0
   -2.7714   -0.0000    0.0000 C   0  0  0  0  0  0  0  0  0  0  0  0
   -4.1569    0.8001    0.0000 C   0  0  0  0  0  0  0  0  0  0  0  0
   -4.1569    2.4000    0.0000 H   0  0  0  0  0  0  0  0  0  0  0  0
   -5.5427   -0.0000    0.0000 C   0  0  0  0  0  0  0  0  0  0  0  0
   -6.9282    0.8001    0.0000 H   0  0  0  0  0  0  0  0  0  0  0  0
   -5.5427   -1.6000    0.0000 C   0  0  0  0  0  0  0  0  0  0  0  0
   -6.9282   -2.4000    0.0000 H   0  0  0  0  0  0  0  0  0  0  0  0
   -4.1569   -2.4000    0.0000 C   0  0  0  0  0  0  0  0  0  0  0  0
   -4.1569   -4.0000    0.0000 H   0  0  0  0  0  0  0  0  0  0  0  0
   -2.7714   -1.6000    0.0000 C   0  0  0  0  0  0  0  0  0  0  0  0
   -1.3856   -2.4000    0.0000 H   0  0  0  0  0  0  0  0  0  0  0  0
   -0.8000   -1.3857    0.0000 O   0  0  0  0  0  0  0  0  0  0  0  0
  1  2  1  0  0  0  0
  2  3  1  0  0  0  0
  3  4  1  0  0  0  0
  3  5  1  0  0  0  0
  3  6  1  0  0  0  0
  1  7  1  0  0  0  0
  7  8  1  0  0  0  0
  8  9  4  0  0  0  0
  9 10  1  0  0  0  0
  9 11  4  0  0  0  0
 11 12  1  0  0  0  0
 11 13  4  0  0  0  0
 13 14  1  0  0  0  0
 13 15  4  0  0  0  0
 15 16  1  0  0  0  0
 15 17  4  0  0  0  0
 17  8  4  0  0  0  0
 17 18  1  0  0  0  0
  1 19  1  0  0  0  0
 19 20  1  0  0  0  0
 20 21  4  0  0  0  0
 21 22  1  0  0  0  0
 21 23  4  0  0  0  0
 23 24  1  0  0  0  0
 23 25  4  0  0  0  0
 25 26  1  0  0  0  0
 25 27  4  0  0  0  0
 27 28  1  0  0  0  0
 27 29  4  0  0  0  0
 29 20  4  0  0  0  0
 29 30  1  0  0  0  0
  1 31  2  0  0  0  0
M  END
> <CAS>
115-89-9

> <NAME>
DIPHENYLMETHYL PHOSPHATE

> <preferred_name>
Phosphoric acid, methyl diphenyl ester

> <iupac>
METHYL DIPHENYL PHOSPHATE

> <SMILES>
COP(=O)(Oc1ccccc1)Oc1ccccc1

> <Canonical_QSARr>
COP(=O)(Oc1ccccc1)Oc1ccccc1

> <InChI_Code_QSARr>
InChI=1S/C13H13O4P/c1-15-18(14,16-12-8-4-2-5-9-12)17-13-10-6-3-7-11-13/h2-11H,1H3

> <InChI Key_QSARr>
VOWPVJACXJNHBC-UHFFFAOYSA-N

> <Salt_Solvent>
?

> <WS Temperature>
25

> <WS Reference>
YALKOWSKY,SH & DANNENFELSER,RM (1992)

> <dsstox_substance_id>
DTXSID7059432

> <LogMolar>
-2.1209

$$$$
116-06-3
  -INDIGO-01081615412D

 26 25  0  0  0  0  0  0  0  0999 V2000
    0.8000   -1.3856    0.0000 C   0  0  0  0  0  0  0  0  0  0  0  0
    0.0001    0.0000    0.0000 C   0  0  0  0  0  0  0  0  0  0  0  0
   -0.8000    1.3856    0.0000 C   0  0  0  0  0  0  0  0  0  0  0  0
   -1.6000    2.7713    0.0000 H   0  0  0  0  0  0  0  0  0  0  0  0
   -2.3999    1.3856    0.0000 H   0  0  0  0  0  0  0  0  0  0  0  0
    0.0001    2.7713    0.0000 H   0  0  0  0  0  0  0  0  0  0  0  0
   -1.3856   -0.8000    0.0000 S   0  0  0  0  0  0  0  0  0  0  0  0
   -2.7712    0.0000    0.0000 C   0  0  0  0  0  0  0  0  0  0  0  0
   -4.1569   -0.8000    0.0000 H   0  0  0  0  0  0  0  0  0  0  0  0
   -4.1569    0.8000    0.0000 H   0  0  0  0  0  0  0  0  0  0  0  0
   -2.7712   -1.6000    0.0000 H   0  0  0  0  0  0  0  0  0  0  0  0
    1.3856    0.8000    0.0000 C   0  0  0  0  0  0  0  0  0  0  0  0
    2.7714    0.0000    0.0000 N   0  0  0  0  0  0  0  0  0  0  0  0
    4.1569    0.8000    0.0000 O   0  0  0  0  0  0  0  0  0  0  0  0
    5.5427    0.0000    0.0000 C   0  0  0  0  0  0  0  0  0  0  0  0
    6.9282    0.8000    0.0000 N   0  0  0  0  0  0  0  0  0  0  0  0
    8.3139    0.0000    0.0000 C   0  0  0  0  0  0  0  0  0  0  0  0
    9.6995   -0.8000    0.0000 H   0  0  0  0  0  0  0  0  0  0  0  0
    9.6995    0.8000    0.0000 H   0  0  0  0  0  0  0  0  0  0  0  0
    8.3139   -1.6000    0.0000 H   0  0  0  0  0  0  0  0  0  0  0  0
    6.9282    2.4000    0.0000 H   0  0  0  0  0  0  0  0  0  0  0  0
    5.5427   -1.6000    0.0000 O   0  0  0  0  0  0  0  0  0  0  0  0
    1.3856    2.4000    0.0000 H   0  0  0  0  0  0  0  0  0  0  0  0
    1.6000   -2.7713    0.0000 H   0  0  0  0  0  0  0  0  0  0  0  0
    0.0001   -2.7713    0.0000 H   0  0  0  0  0  0  0  0  0  0  0  0
    2.3999   -1.3856    0.0000 H   0  0  0  0  0  0  0  0  0  0  0  0
  1  2  1  0  0  0  0
  2  3  1  0  0  0  0
  3  4  1  0  0  0  0
  3  5  1  0  0  0  0
  3  6  1  0  0  0  0
  2  7  1  0  0  0  0
  7  8  1  0  0  0  0
  8  9  1  0  0  0  0
  8 10  1  0  0  0  0
  8 11  1  0  0  0  0
  2 12  1  0  0  0  0
 12 13  2  0  0  0  0
 13 14  1  0  0  0  0
 14 15  1  0  0  0  0
 15 16  1  0  0  0  0
 16 17  1  0  0  0  0
 17 18  1  0  0  0  0
 17 19  1  0  0  0  0
 17 20  1  0  0  0  0
 16 21  1  0  0  0  0
 15 22  2  0  0  0  0
 12 23  1  0  0  0  0
  1 24  1  0  0  0  0
  1 25  1  0  0  0  0
  1 26  1  0  0  0  0
M  END
> <CAS>
116-06-3

> <NAME>
ALDICARB

> <preferred_name>
Aldicarb

> <iupac>
7,7-dimethyl-4-oxa-8-thia-2,5-diazanon-5-en-3-one

> <SMILES>
CNC(=O)ON=CC(C)(C)SC

> <Canonical_QSARr>
CNC(=O)ON=CC(C)(C)SC

> <InChI_Code_QSARr>
InChI=1S/C7H14N2O2S/c1-7(2,12-4)5-9-11-6(10)8-3/h5H,1-4H3,(H,8,10)/b9-5+

> <InChI Key_QSARr>
QGLZXHRNAYXIBU-WEVVVXLNSA-N

> <Salt_Solvent>
?

> <WS Temperature>
25

> <WS Reference>
BOWMAN,BT & SANS,WW (1983A)

> <dsstox_substance_id>
DTXSID0039223

> <LogMolar>
-1.4991

$$$$
116-25-6
  -INDIGO-01081615412D

 21 21  0  0  0  0  0  0  0  0999 V2000
    1.0707   -1.1891    0.0000 N   0  0  0  0  0  0  0  0  0  0  0  0
    2.5322   -1.8398    0.0000 C   0  0  0  0  0  0  0  0  0  0  0  0
    3.9939   -2.4906    0.0000 O   0  0  0  0  0  0  0  0  0  0  0  0
    4.1612   -4.0818    0.0000 H   0  0  0  0  0  0  0  0  0  0  0  0
    1.8815   -3.3015    0.0000 H   0  0  0  0  0  0  0  0  0  0  0  0
    3.1831   -0.3781    0.0000 H   0  0  0  0  0  0  0  0  0  0  0  0
    0.0000    0.0000    0.0000 C   0  0  0  0  0  0  0  0  0  0  0  0
    1.4381    0.7014    0.0000 C   0  0  0  0  0  0  0  0  0  0  0  0
    2.5496    1.8523    0.0000 H   0  0  0  0  0  0  0  0  0  0  0  0
    3.0293    0.8686    0.0000 H   0  0  0  0  0  0  0  0  0  0  0  0
    0.9971    2.2394    0.0000 H   0  0  0  0  0  0  0  0  0  0  0  0
   -0.8000    1.3856    0.0000 C   0  0  0  0  0  0  0  0  0  0  0  0
   -1.6000    2.7713    0.0000 H   0  0  0  0  0  0  0  0  0  0  0  0
   -2.4000    1.3856    0.0000 H   0  0  0  0  0  0  0  0  0  0  0  0
    0.0000    2.7713    0.0000 H   0  0  0  0  0  0  0  0  0  0  0  0
   -1.4617   -0.6508    0.0000 C   0  0  0  0  0  0  0  0  0  0  0  0
   -2.8473    0.1493    0.0000 O   0  0  0  0  0  0  0  0  0  0  0  0
   -1.2944   -2.2420    0.0000 N   0  0  0  0  0  0  0  0  0  0  0  0
   -2.4835   -3.3126    0.0000 H   0  0  0  0  0  0  0  0  0  0  0  0
    0.2706   -2.5746    0.0000 C   0  0  0  0  0  0  0  0  0  0  0  0
    0.9214   -4.0363    0.0000 O   0  0  0  0  0  0  0  0  0  0  0  0
  1  2  1  0  0  0  0
  2  3  1  0  0  0  0
  3  4  1  0  0  0  0
  2  5  1  0  0  0  0
  2  6  1  0  0  0  0
  1  7  1  0  0  0  0
  7  8  1  0  0  0  0
  8  9  1  0  0  0  0
  8 10  1  0  0  0  0
  8 11  1  0  0  0  0
  7 12  1  0  0  0  0
 12 13  1  0  0  0  0
 12 14  1  0  0  0  0
 12 15  1  0  0  0  0
  7 16  1  0  0  0  0
 16 17  2  0  0  0  0
 16 18  1  0  0  0  0
 18 19  1  0  0  0  0
 18 20  1  0  0  0  0
 20  1  1  0  0  0  0
 20 21  2  0  0  0  0
M  END
> <CAS>
116-25-6

> <NAME>
1-(Hydroxymethyl)-5,5-dimethylhydantoin

> <preferred_name>
1-(Hydroxymethyl)-5,5-dimethylhydantoin

> <iupac>
1-(hydroxymethyl)-5,5-dimethylimidazolidine-2,4-dione

> <SMILES>
CC1(C)C(=O)NC(=O)N1CO

> <Canonical_QSARr>
CC1(C)C(=O)NC(=O)N1CO

> <InChI_Code_QSARr>
InChI=1S/C6H10N2O3/c1-6(2)4(10)7-5(11)8(6)3-9/h9H,3H2,1-2H3,(H,7,10,11)

> <InChI Key_QSARr>
SIQZJFKTROUNPI-UHFFFAOYSA-N

> <Salt_Solvent>
?

> <WS Temperature>


> <WS Reference>
MERCK INDEX (1996); freely soluble

> <dsstox_substance_id>
DTXSID6035152

> <LogMolar>
0.8009

$$$$
116-53-0
  -INDIGO-01081615412D

 17 16  0  0  0  0  0  0  0  0999 V2000
   -1.3856   -0.8000    0.0000 C   0  0  0  0  0  0  0  0  0  0  0  0
   -0.0000   -0.0000    0.0000 C   0  0  0  0  0  0  0  0  0  0  0  0
   -0.8000    1.3857    0.0000 C   0  0  0  0  0  0  0  0  0  0  0  0
   -0.2527    2.8891    0.0000 O   0  0  0  0  0  0  0  0  0  0  0  0
   -2.3999    1.3857    0.0000 O   0  0  0  0  0  0  0  0  0  0  0  0
   -3.2000    2.7713    0.0000 H   0  0  0  0  0  0  0  0  0  0  0  0
    1.5035    0.5473    0.0000 C   0  0  0  0  0  0  0  0  0  0  0  0
    3.0070    1.0945    0.0000 C   0  0  0  0  0  0  0  0  0  0  0  0
    4.5105    1.6417    0.0000 H   0  0  0  0  0  0  0  0  0  0  0  0
    4.2327    0.0660    0.0000 H   0  0  0  0  0  0  0  0  0  0  0  0
    3.2849    2.6702    0.0000 H   0  0  0  0  0  0  0  0  0  0  0  0
    2.0507   -0.9563    0.0000 H   0  0  0  0  0  0  0  0  0  0  0  0
    0.9563    2.0508    0.0000 H   0  0  0  0  0  0  0  0  0  0  0  0
    0.8000   -1.3857    0.0000 H   0  0  0  0  0  0  0  0  0  0  0  0
   -2.7713   -1.6000    0.0000 H   0  0  0  0  0  0  0  0  0  0  0  0
   -1.3856   -2.4000    0.0000 H   0  0  0  0  0  0  0  0  0  0  0  0
   -2.7713   -0.0000    0.0000 H   0  0  0  0  0  0  0  0  0  0  0  0
  1  2  1  0  0  0  0
  2  3  1  0  0  0  0
  3  4  2  0  0  0  0
  3  5  1  0  0  0  0
  5  6  1  0  0  0  0
  2  7  1  0  0  0  0
  7  8  1  0  0  0  0
  8  9  1  0  0  0  0
  8 10  1  0  0  0  0
  8 11  1  0  0  0  0
  7 12  1  0  0  0  0
  7 13  1  0  0  0  0
  2 14  1  0  0  0  0
  1 15  1  0  0  0  0
  1 16  1  0  0  0  0
  1 17  1  0  0  0  0
M  END
> <CAS>
116-53-0

> <NAME>
BUTANOIC ACID, 2-METHYL-

> <preferred_name>
2-Methylbutanoic acid

> <iupac>
2-methylbutanoic acid

> <SMILES>
CCC(C)C(O)=O

> <Canonical_QSARr>
CCC(C)C(O)=O

> <InChI_Code_QSARr>
InChI=1S/C5H10O2/c1-3-4(2)5(6)7/h4H,3H2,1-2H3,(H,6,7)

> <InChI Key_QSARr>
WLAMNBDJUVNPJU-UHFFFAOYSA-N

> <Salt_Solvent>
?

> <WS Temperature>
20

> <WS Reference>
RIEMENSCHNEIDER,W (1986)

> <dsstox_substance_id>
DTXSID5021621

> <LogMolar>
-0.3559

$$$$
117-34-0
  -INDIGO-01081615412D

 28 29  0  0  0  0  0  0  0  0999 V2000
   -0.0000   -0.0000    0.0000 C   0  0  0  0  0  0  0  0  0  0  0  0
    0.2779    1.5757    0.0000 C   0  0  0  0  0  0  0  0  0  0  0  0
   -0.9479    2.6041    0.0000 O   0  0  0  0  0  0  0  0  0  0  0  0
    1.7813    2.1229    0.0000 O   0  0  0  0  0  0  0  0  0  0  0  0
    2.0592    3.6986    0.0000 H   0  0  0  0  0  0  0  0  0  0  0  0
    1.3856   -0.8000    0.0000 C   0  0  0  0  0  0  0  0  0  0  0  0
    2.7714   -0.0000    0.0000 C   0  0  0  0  0  0  0  0  0  0  0  0
    2.7714    1.6000    0.0000 H   0  0  0  0  0  0  0  0  0  0  0  0
    4.1570   -0.8000    0.0000 C   0  0  0  0  0  0  0  0  0  0  0  0
    5.5426   -0.0000    0.0000 H   0  0  0  0  0  0  0  0  0  0  0  0
    4.1570   -2.4000    0.0000 C   0  0  0  0  0  0  0  0  0  0  0  0
    5.5426   -3.2000    0.0000 H   0  0  0  0  0  0  0  0  0  0  0  0
    2.7714   -3.2000    0.0000 C   0  0  0  0  0  0  0  0  0  0  0  0
    2.7714   -4.8000    0.0000 H   0  0  0  0  0  0  0  0  0  0  0  0
    1.3856   -2.4000    0.0000 C   0  0  0  0  0  0  0  0  0  0  0  0
   -0.0000   -3.2000    0.0000 H   0  0  0  0  0  0  0  0  0  0  0  0
   -1.5757    0.2778    0.0000 C   0  0  0  0  0  0  0  0  0  0  0  0
   -2.3757    1.6635    0.0000 C   0  0  0  0  0  0  0  0  0  0  0  0
   -2.0978    3.2392    0.0000 H   0  0  0  0  0  0  0  0  0  0  0  0
   -3.9757    1.6635    0.0000 C   0  0  0  0  0  0  0  0  0  0  0  0
   -4.7757    3.0492    0.0000 H   0  0  0  0  0  0  0  0  0  0  0  0
   -4.7757    0.2778    0.0000 C   0  0  0  0  0  0  0  0  0  0  0  0
   -6.3757    0.2778    0.0000 H   0  0  0  0  0  0  0  0  0  0  0  0
   -3.9757   -1.1079    0.0000 C   0  0  0  0  0  0  0  0  0  0  0  0
   -4.7757   -2.4935    0.0000 H   0  0  0  0  0  0  0  0  0  0  0  0
   -2.3757   -1.1079    0.0000 C   0  0  0  0  0  0  0  0  0  0  0  0
   -1.5757   -2.4935    0.0000 H   0  0  0  0  0  0  0  0  0  0  0  0
   -0.5472   -1.5035    0.0000 H   0  0  0  0  0  0  0  0  0  0  0  0
  1  2  1  0  0  0  0
  2  3  2  0  0  0  0
  2  4  1  0  0  0  0
  4  5  1  0  0  0  0
  1  6  1  0  0  0  0
  6  7  4  0  0  0  0
  7  8  1  0  0  0  0
  7  9  4  0  0  0  0
  9 10  1  0  0  0  0
  9 11  4  0  0  0  0
 11 12  1  0  0  0  0
 11 13  4  0  0  0  0
 13 14  1  0  0  0  0
 13 15  4  0  0  0  0
 15  6  4  0  0  0  0
 15 16  1  0  0  0  0
  1 17  1  0  0  0  0
 17 18  4  0  0  0  0
 18 19  1  0  0  0  0
 18 20  4  0  0  0  0
 20 21  1  0  0  0  0
 20 22  4  0  0  0  0
 22 23  1  0  0  0  0
 22 24  4  0  0  0  0
 24 25  1  0  0  0  0
 24 26  4  0  0  0  0
 26 17  4  0  0  0  0
 26 27  1  0  0  0  0
  1 28  1  0  0  0  0
M  END
> <CAS>
117-34-0

> <NAME>
DIPHENYLACETIC ACID

> <preferred_name>
Benzeneacetic acid, .alpha.-phenyl-

> <iupac>
2,2-di(phenyl)acetic acid

> <SMILES>
OC(=O)C(c1ccccc1)c1ccccc1

> <Canonical_QSARr>
OC(=O)C(c1ccccc1)c1ccccc1

> <InChI_Code_QSARr>
InChI=1S/C14H12O2/c15-14(16)13(11-7-3-1-4-8-11)12-9-5-2-6-10-12/h1-10,13H,(H,15,16)

> <InChI Key_QSARr>
PYHXGXCGESYPCW-UHFFFAOYSA-N

> <Salt_Solvent>
?

> <WS Temperature>
25

> <WS Reference>
YALKOWSKY,SH & DANNENFELSER,RM (1992)

> <dsstox_substance_id>
DTXSID0059453

> <LogMolar>
-3.223

$$$$
117-81-7
  -INDIGO-01081615412D

 66 66  0  0  0  0  0  0  0  0999 V2000
   -5.6001   -1.3855    0.0000 O   0  0  0  0  0  0  0  0  0  0  0  0
   -6.3999   -2.7713    0.0000 C   0  0  0  0  0  0  0  0  0  0  0  0
   -8.0001   -2.7713    0.0000 O   0  0  0  0  0  0  0  0  0  0  0  0
   -8.7999   -1.3855    0.0000 C   0  0  0  0  0  0  0  0  0  0  0  0
   -9.8284   -0.1600    0.0000 C   0  0  0  0  0  0  0  0  0  0  0  0
  -10.3826   -0.4799    0.0000 C   0  0  0  0  0  0  0  0  0  0  0  0
  -11.7684   -1.2800    0.0000 C   0  0  0  0  0  0  0  0  0  0  0  0
  -13.1540   -2.0801    0.0000 H   0  0  0  0  0  0  0  0  0  0  0  0
  -11.7684   -2.8799    0.0000 H   0  0  0  0  0  0  0  0  0  0  0  0
  -13.1540   -0.4799    0.0000 H   0  0  0  0  0  0  0  0  0  0  0  0
   -9.8355   -1.9835    0.0000 H   0  0  0  0  0  0  0  0  0  0  0  0
  -11.6083    0.5484    0.0000 H   0  0  0  0  0  0  0  0  0  0  0  0
  -10.1064    1.4157    0.0000 C   0  0  0  0  0  0  0  0  0  0  0  0
  -10.3842    2.9915    0.0000 C   0  0  0  0  0  0  0  0  0  0  0  0
  -10.6620    4.5672    0.0000 C   0  0  0  0  0  0  0  0  0  0  0  0
  -10.9397    6.1427    0.0000 C   0  0  0  0  0  0  0  0  0  0  0  0
  -11.2178    7.7185    0.0000 H   0  0  0  0  0  0  0  0  0  0  0  0
   -9.7140    7.1713    0.0000 H   0  0  0  0  0  0  0  0  0  0  0  0
  -12.4432    6.6901    0.0000 H   0  0  0  0  0  0  0  0  0  0  0  0
   -9.0864    4.8450    0.0000 H   0  0  0  0  0  0  0  0  0  0  0  0
  -12.2375    4.2892    0.0000 H   0  0  0  0  0  0  0  0  0  0  0  0
   -8.8083    3.2693    0.0000 H   0  0  0  0  0  0  0  0  0  0  0  0
  -11.9598    2.7137    0.0000 H   0  0  0  0  0  0  0  0  0  0  0  0
  -11.6820    1.6935    0.0000 H   0  0  0  0  0  0  0  0  0  0  0  0
   -8.5306    1.6935    0.0000 H   0  0  0  0  0  0  0  0  0  0  0  0
   -8.4428    0.6400    0.0000 H   0  0  0  0  0  0  0  0  0  0  0  0
   -9.3473   -2.8891    0.0000 H   0  0  0  0  0  0  0  0  0  0  0  0
   -7.4143   -0.5857    0.0000 H   0  0  0  0  0  0  0  0  0  0  0  0
   -5.6001   -4.1569    0.0000 C   0  0  0  0  0  0  0  0  0  0  0  0
   -6.3999   -5.5425    0.0000 C   0  0  0  0  0  0  0  0  0  0  0  0
   -8.0001   -5.5425    0.0000 H   0  0  0  0  0  0  0  0  0  0  0  0
   -5.6001   -6.9283    0.0000 C   0  0  0  0  0  0  0  0  0  0  0  0
   -6.3999   -8.3138    0.0000 H   0  0  0  0  0  0  0  0  0  0  0  0
   -4.0000   -6.9283    0.0000 C   0  0  0  0  0  0  0  0  0  0  0  0
   -3.1999   -8.3138    0.0000 H   0  0  0  0  0  0  0  0  0  0  0  0
   -3.1999   -5.5425    0.0000 C   0  0  0  0  0  0  0  0  0  0  0  0
   -1.6000   -5.5425    0.0000 H   0  0  0  0  0  0  0  0  0  0  0  0
   -4.0000   -4.1569    0.0000 C   0  0  0  0  0  0  0  0  0  0  0  0
   -3.1999   -2.7713    0.0000 C   0  0  0  0  0  0  0  0  0  0  0  0
   -1.6000   -2.7713    0.0000 O   0  0  0  0  0  0  0  0  0  0  0  0
   -0.7999   -1.3855    0.0000 C   0  0  0  0  0  0  0  0  0  0  0  0
   -0.0001    0.0000    0.0000 C   0  0  0  0  0  0  0  0  0  0  0  0
    0.6015   -0.2188    0.0000 C   0  0  0  0  0  0  0  0  0  0  0  0
    2.1050   -0.7662    0.0000 C   0  0  0  0  0  0  0  0  0  0  0  0
    3.6084   -1.3133    0.0000 H   0  0  0  0  0  0  0  0  0  0  0  0
    3.3306    0.2624    0.0000 H   0  0  0  0  0  0  0  0  0  0  0  0
    2.3827   -2.3419    0.0000 H   0  0  0  0  0  0  0  0  0  0  0  0
    0.3235   -1.7945    0.0000 H   0  0  0  0  0  0  0  0  0  0  0  0
    1.4013    1.1668    0.0000 H   0  0  0  0  0  0  0  0  0  0  0  0
   -0.0001    1.5999    0.0000 C   0  0  0  0  0  0  0  0  0  0  0  0
   -0.0001    3.2001    0.0000 C   0  0  0  0  0  0  0  0  0  0  0  0
   -0.0001    4.8000    0.0000 C   0  0  0  0  0  0  0  0  0  0  0  0
   -0.0001    6.4001    0.0000 C   0  0  0  0  0  0  0  0  0  0  0  0
   -0.0001    8.0000    0.0000 H   0  0  0  0  0  0  0  0  0  0  0  0
   -1.3856    7.1999    0.0000 H   0  0  0  0  0  0  0  0  0  0  0  0
    1.3857    7.1999    0.0000 H   0  0  0  0  0  0  0  0  0  0  0  0
    1.6000    4.8000    0.0000 H   0  0  0  0  0  0  0  0  0  0  0  0
   -1.6000    4.8000    0.0000 H   0  0  0  0  0  0  0  0  0  0  0  0
    1.6000    3.2001    0.0000 H   0  0  0  0  0  0  0  0  0  0  0  0
   -1.6000    3.2001    0.0000 H   0  0  0  0  0  0  0  0  0  0  0  0
   -1.6000    1.5999    0.0000 H   0  0  0  0  0  0  0  0  0  0  0  0
    1.5036    2.1473    0.0000 H   0  0  0  0  0  0  0  0  0  0  0  0
   -1.5036    0.5472    0.0000 H   0  0  0  0  0  0  0  0  0  0  0  0
   -0.0001   -2.7713    0.0000 H   0  0  0  0  0  0  0  0  0  0  0  0
   -2.1857   -0.5857    0.0000 H   0  0  0  0  0  0  0  0  0  0  0  0
   -4.0000   -1.3855    0.0000 O   0  0  0  0  0  0  0  0  0  0  0  0
  1  2  2  0  0  0  0
  2  3  1  0  0  0  0
  3  4  1  0  0  0  0
  4  5  1  0  0  0  0
  5  6  1  0  0  0  0
  6  7  1  0  0  0  0
  7  8  1  0  0  0  0
  7  9  1  0  0  0  0
  7 10  1  0  0  0  0
  6 11  1  0  0  0  0
  6 12  1  0  0  0  0
  5 13  1  0  0  0  0
 13 14  1  0  0  0  0
 14 15  1  0  0  0  0
 15 16  1  0  0  0  0
 16 17  1  0  0  0  0
 16 18  1  0  0  0  0
 16 19  1  0  0  0  0
 15 20  1  0  0  0  0
 15 21  1  0  0  0  0
 14 22  1  0  0  0  0
 14 23  1  0  0  0  0
 13 24  1  0  0  0  0
 13 25  1  0  0  0  0
  5 26  1  0  0  0  0
  4 27  1  0  0  0  0
  4 28  1  0  0  0  0
  2 29  1  0  0  0  0
 29 30  4  0  0  0  0
 30 31  1  0  0  0  0
 30 32  4  0  0  0  0
 32 33  1  0  0  0  0
 32 34  4  0  0  0  0
 34 35  1  0  0  0  0
 34 36  4  0  0  0  0
 36 37  1  0  0  0  0
 36 38  4  0  0  0  0
 38 29  4  0  0  0  0
 38 39  1  0  0  0  0
 39 40  1  0  0  0  0
 40 41  1  0  0  0  0
 41 42  1  0  0  0  0
 42 43  1  0  0  0  0
 43 44  1  0  0  0  0
 44 45  1  0  0  0  0
 44 46  1  0  0  0  0
 44 47  1  0  0  0  0
 43 48  1  0  0  0  0
 43 49  1  0  0  0  0
 42 50  1  0  0  0  0
 50 51  1  0  0  0  0
 51 52  1  0  0  0  0
 52 53  1  0  0  0  0
 53 54  1  0  0  0  0
 53 55  1  0  0  0  0
 53 56  1  0  0  0  0
 52 57  1  0  0  0  0
 52 58  1  0  0  0  0
 51 59  1  0  0  0  0
 51 60  1  0  0  0  0
 50 61  1  0  0  0  0
 50 62  1  0  0  0  0
 42 63  1  0  0  0  0
 41 64  1  0  0  0  0
 41 65  1  0  0  0  0
 39 66  2  0  0  0  0
M  END
> <CAS>
117-81-7

> <NAME>
BIS(2-ETHYLHEXYL)PHTHALATE

> <preferred_name>
Di(2-ethylhexyl) phthalate

> <iupac>
bis(2-ethylhexyl) benzene-1,2-dicarboxylate

> <SMILES>
CCCCC(COC(=O)c1ccccc1C(=O)OCC(CCCC)CC)CC

> <Canonical_QSARr>
CCCCC(COC(=O)c1ccccc1C(=O)OCC(CCCC)CC)CC

> <InChI_Code_QSARr>
InChI=1S/C24H38O4/c1-5-9-13-19(7-3)17-27-23(25)21-15-11-12-16-22(21)24(26)28-18-20(8-4)14-10-6-2/h11-12,15-16,19-20H,5-10,13-14,17-18H2,1-4H3

> <InChI Key_QSARr>
BJQHLKABXJIVAM-UHFFFAOYSA-N

> <Salt_Solvent>
?

> <WS Temperature>
25

> <WS Reference>
DEFOE,DL ET AL. (1990)

> <dsstox_substance_id>
DTXSID5020607

> <LogMolar>
-6.9684

$$$$
118-44-5
  -INDIGO-01081615412D

 26 27  0  0  0  0  0  0  0  0999 V2000
   -2.4000    1.3857    0.0000 N   0  0  0  0  0  0  0  0  0  0  0  0
   -4.0000    1.3857    0.0000 C   0  0  0  0  0  0  0  0  0  0  0  0
   -5.6000    1.3857    0.0000 C   0  0  0  0  0  0  0  0  0  0  0  0
   -7.2000    1.3857    0.0000 H   0  0  0  0  0  0  0  0  0  0  0  0
   -6.4000    2.7713    0.0000 H   0  0  0  0  0  0  0  0  0  0  0  0
   -6.4000    0.0000    0.0000 H   0  0  0  0  0  0  0  0  0  0  0  0
   -4.0000    2.9856    0.0000 H   0  0  0  0  0  0  0  0  0  0  0  0
   -4.0000   -0.2144    0.0000 H   0  0  0  0  0  0  0  0  0  0  0  0
   -1.6000    0.0000    0.0000 C   0  0  0  0  0  0  0  0  0  0  0  0
   -2.4000   -1.3857    0.0000 C   0  0  0  0  0  0  0  0  0  0  0  0
   -4.0000   -1.3857    0.0000 H   0  0  0  0  0  0  0  0  0  0  0  0
   -1.6000   -2.7712    0.0000 C   0  0  0  0  0  0  0  0  0  0  0  0
   -2.4000   -4.1569    0.0000 H   0  0  0  0  0  0  0  0  0  0  0  0
    0.0000   -2.7712    0.0000 C   0  0  0  0  0  0  0  0  0  0  0  0
    0.8000   -4.1569    0.0000 H   0  0  0  0  0  0  0  0  0  0  0  0
    0.8000   -1.3857    0.0000 C   0  0  0  0  0  0  0  0  0  0  0  0
    2.4000   -1.3857    0.0000 C   0  0  0  0  0  0  0  0  0  0  0  0
    3.2000    0.0000    0.0000 C   0  0  0  0  0  0  0  0  0  0  0  0
    2.4000    1.3857    0.0000 C   0  0  0  0  0  0  0  0  0  0  0  0
    0.8000    1.3857    0.0000 C   0  0  0  0  0  0  0  0  0  0  0  0
    0.0000    2.7713    0.0000 H   0  0  0  0  0  0  0  0  0  0  0  0
    0.0000    0.0000    0.0000 C   0  0  0  0  0  0  0  0  0  0  0  0
    3.2000    2.7713    0.0000 H   0  0  0  0  0  0  0  0  0  0  0  0
    4.8000    0.0000    0.0000 H   0  0  0  0  0  0  0  0  0  0  0  0
    3.2000   -2.7712    0.0000 H   0  0  0  0  0  0  0  0  0  0  0  0
   -1.6000    2.7713    0.0000 H   0  0  0  0  0  0  0  0  0  0  0  0
  1  2  1  0  0  0  0
  2  3  1  0  0  0  0
  3  4  1  0  0  0  0
  3  5  1  0  0  0  0
  3  6  1  0  0  0  0
  2  7  1  0  0  0  0
  2  8  1  0  0  0  0
  1  9  1  0  0  0  0
  9 10  4  0  0  0  0
 10 11  1  0  0  0  0
 10 12  4  0  0  0  0
 12 13  1  0  0  0  0
 12 14  4  0  0  0  0
 14 15  1  0  0  0  0
 14 16  4  0  0  0  0
 16 17  4  0  0  0  0
 17 18  4  0  0  0  0
 18 19  4  0  0  0  0
 19 20  4  0  0  0  0
 20 21  1  0  0  0  0
 20 22  4  0  0  0  0
 22  9  4  0  0  0  0
 22 16  4  0  0  0  0
 19 23  1  0  0  0  0
 18 24  1  0  0  0  0
 17 25  1  0  0  0  0
  1 26  1  0  0  0  0
M  END
> <CAS>
118-44-5

> <NAME>
1-NAPHTHALENAMINE, N-ETHYL-

> <preferred_name>
1-Naphthalenamine, N-ethyl-

> <iupac>
N-ethylnaphthalen-1-amine

> <SMILES>
CCNc1cccc2ccccc21

> <Canonical_QSARr>
CCNc1cccc2ccccc21

> <InChI_Code_QSARr>
InChI=1S/C12H13N/c1-2-13-12-9-5-7-10-6-3-4-8-11(10)12/h3-9,13H,2H2,1H3

> <InChI Key_QSARr>
KDFFXYVOTKKBDI-UHFFFAOYSA-N

> <Salt_Solvent>
?

> <WS Temperature>
25

> <WS Reference>
CHEMICALS INSPECTION AND TESTING INSTITU (1992)

> <dsstox_substance_id>
DTXSID8059473

> <LogMolar>
-3.1922

$$$$
118-74-1
  -INDIGO-01081615412D

 12 12  0  0  0  0  0  0  0  0999 V2000
   -0.8000    1.3856    0.0000 Cl  0  0  0  0  0  0  0  0  0  0  0  0
    0.0000   -0.0000    0.0000 C   0  0  0  0  0  0  0  0  0  0  0  0
   -0.8000   -1.3857    0.0000 C   0  0  0  0  0  0  0  0  0  0  0  0
   -2.4000   -1.3857    0.0000 Cl  0  0  0  0  0  0  0  0  0  0  0  0
    0.0000   -2.7713    0.0000 C   0  0  0  0  0  0  0  0  0  0  0  0
   -0.8000   -4.1569    0.0000 Cl  0  0  0  0  0  0  0  0  0  0  0  0
    1.6000   -2.7713    0.0000 C   0  0  0  0  0  0  0  0  0  0  0  0
    2.4000   -4.1569    0.0000 Cl  0  0  0  0  0  0  0  0  0  0  0  0
    2.4000   -1.3857    0.0000 C   0  0  0  0  0  0  0  0  0  0  0  0
    4.0000   -1.3857    0.0000 Cl  0  0  0  0  0  0  0  0  0  0  0  0
    1.6000   -0.0000    0.0000 C   0  0  0  0  0  0  0  0  0  0  0  0
    2.4000    1.3856    0.0000 Cl  0  0  0  0  0  0  0  0  0  0  0  0
  1  2  1  0  0  0  0
  2  3  4  0  0  0  0
  3  4  1  0  0  0  0
  3  5  4  0  0  0  0
  5  6  1  0  0  0  0
  5  7  4  0  0  0  0
  7  8  1  0  0  0  0
  7  9  4  0  0  0  0
  9 10  1  0  0  0  0
  9 11  4  0  0  0  0
 11  2  4  0  0  0  0
 11 12  1  0  0  0  0
M  END
> <CAS>
118-74-1

> <NAME>
HEXACHLOROBENZENE

> <preferred_name>
Hexachlorobenzene

> <iupac>
hexachlorobenzene

> <SMILES>
Clc1c(Cl)c(Cl)c(Cl)c(Cl)c1Cl

> <Canonical_QSARr>
Clc1c(Cl)c(Cl)c(Cl)c(Cl)c1Cl

> <InChI_Code_QSARr>
InChI=1S/C6Cl6/c7-1-2(8)4(10)6(12)5(11)3(1)9

> <InChI Key_QSARr>
CKAPSXZOOQJIBF-UHFFFAOYSA-N

> <Salt_Solvent>
?

> <WS Temperature>
25

> <WS Reference>
FARMER,WJ ET AL. (1976)

> <dsstox_substance_id>
DTXSID2020682

> <LogMolar>
-7.6621

$$$$
118-90-1
  -INDIGO-01081615412D

 18 18  0  0  0  0  0  0  0  0999 V2000
   -1.6000    2.7713    0.0000 O   0  0  0  0  0  0  0  0  0  0  0  0
   -2.4000    1.3856    0.0000 C   0  0  0  0  0  0  0  0  0  0  0  0
   -1.6000    0.0000    0.0000 C   0  0  0  0  0  0  0  0  0  0  0  0
   -2.4000   -1.3856    0.0000 C   0  0  0  0  0  0  0  0  0  0  0  0
   -4.0000   -1.3856    0.0000 H   0  0  0  0  0  0  0  0  0  0  0  0
   -1.6000   -2.7713    0.0000 C   0  0  0  0  0  0  0  0  0  0  0  0
   -2.4000   -4.1569    0.0000 H   0  0  0  0  0  0  0  0  0  0  0  0
    0.0000   -2.7713    0.0000 C   0  0  0  0  0  0  0  0  0  0  0  0
    0.8000   -4.1569    0.0000 H   0  0  0  0  0  0  0  0  0  0  0  0
    0.8000   -1.3856    0.0000 C   0  0  0  0  0  0  0  0  0  0  0  0
    2.4000   -1.3856    0.0000 H   0  0  0  0  0  0  0  0  0  0  0  0
    0.0000    0.0000    0.0000 C   0  0  0  0  0  0  0  0  0  0  0  0
    0.8000    1.3856    0.0000 C   0  0  0  0  0  0  0  0  0  0  0  0
    1.6000    2.7713    0.0000 H   0  0  0  0  0  0  0  0  0  0  0  0
    2.4000    1.3856    0.0000 H   0  0  0  0  0  0  0  0  0  0  0  0
    0.0000    2.7713    0.0000 H   0  0  0  0  0  0  0  0  0  0  0  0
   -4.0000    1.3856    0.0000 O   0  0  0  0  0  0  0  0  0  0  0  0
   -4.8000    2.7713    0.0000 H   0  0  0  0  0  0  0  0  0  0  0  0
  1  2  2  0  0  0  0
  2  3  1  0  0  0  0
  3  4  4  0  0  0  0
  4  5  1  0  0  0  0
  4  6  4  0  0  0  0
  6  7  1  0  0  0  0
  6  8  4  0  0  0  0
  8  9  1  0  0  0  0
  8 10  4  0  0  0  0
 10 11  1  0  0  0  0
 10 12  4  0  0  0  0
 12  3  4  0  0  0  0
 12 13  1  0  0  0  0
 13 14  1  0  0  0  0
 13 15  1  0  0  0  0
 13 16  1  0  0  0  0
  2 17  1  0  0  0  0
 17 18  1  0  0  0  0
M  END
> <CAS>
118-90-1

> <NAME>
O-TOLUIC ACID

> <preferred_name>
2-Methylbenzoic acid

> <iupac>
2-methylbenzoic acid

> <SMILES>
Cc1ccccc1C(O)=O

> <Canonical_QSARr>
Cc1ccccc1C(O)=O

> <InChI_Code_QSARr>
InChI=1S/C8H8O2/c1-6-4-2-3-5-7(6)8(9)10/h2-5H,1H3,(H,9,10)

> <InChI Key_QSARr>
ZWLPBLYKEWSWPD-UHFFFAOYSA-N

> <Salt_Solvent>
?

> <WS Temperature>
25

> <WS Reference>
YALKOWSKY,SH & DANNENFELSER,RM (1992)

> <dsstox_substance_id>
DTXSID6026161

> <LogMolar>
-2.0621

$$$$
119-12-0
  -INDIGO-01081615412D

 39 40  0  0  0  0  0  0  0  0999 V2000
    0.0000   -0.0001    0.0000 P   0  0  0  0  0  0  0  0  0  0  0  0
    1.3856    0.8001    0.0000 O   0  0  0  0  0  0  0  0  0  0  0  0
    2.7712   -0.0001    0.0000 C   0  0  0  0  0  0  0  0  0  0  0  0
    4.1570   -0.8000    0.0000 C   0  0  0  0  0  0  0  0  0  0  0  0
    5.5426   -1.6000    0.0000 H   0  0  0  0  0  0  0  0  0  0  0  0
    5.5426   -0.0001    0.0000 H   0  0  0  0  0  0  0  0  0  0  0  0
    4.1570   -2.4000    0.0000 H   0  0  0  0  0  0  0  0  0  0  0  0
    3.5714    1.3856    0.0000 H   0  0  0  0  0  0  0  0  0  0  0  0
    1.9712   -1.3857    0.0000 H   0  0  0  0  0  0  0  0  0  0  0  0
    0.8000   -1.3857    0.0000 O   0  0  0  0  0  0  0  0  0  0  0  0
    0.0000   -2.7713    0.0000 C   0  0  0  0  0  0  0  0  0  0  0  0
   -0.8000   -4.1569    0.0000 C   0  0  0  0  0  0  0  0  0  0  0  0
   -1.6000   -5.5426    0.0000 H   0  0  0  0  0  0  0  0  0  0  0  0
    0.0000   -5.5426    0.0000 H   0  0  0  0  0  0  0  0  0  0  0  0
   -2.4000   -4.1569    0.0000 H   0  0  0  0  0  0  0  0  0  0  0  0
    1.3856   -3.5713    0.0000 H   0  0  0  0  0  0  0  0  0  0  0  0
   -1.3856   -1.9713    0.0000 H   0  0  0  0  0  0  0  0  0  0  0  0
   -1.3856   -0.8000    0.0000 O   0  0  0  0  0  0  0  0  0  0  0  0
   -2.7714   -0.0001    0.0000 C   0  0  0  0  0  0  0  0  0  0  0  0
   -2.7714    1.6001    0.0000 C   0  0  0  0  0  0  0  0  0  0  0  0
   -1.3856    2.4000    0.0000 H   0  0  0  0  0  0  0  0  0  0  0  0
   -4.1570    2.4000    0.0000 C   0  0  0  0  0  0  0  0  0  0  0  0
   -4.1570    4.0000    0.0000 H   0  0  0  0  0  0  0  0  0  0  0  0
   -5.5426    1.6001    0.0000 C   0  0  0  0  0  0  0  0  0  0  0  0
   -6.9281    2.4000    0.0000 O   0  0  0  0  0  0  0  0  0  0  0  0
   -5.5426   -0.0001    0.0000 N   0  0  0  0  0  0  0  0  0  0  0  0
   -6.9281   -0.8000    0.0000 C   0  0  0  0  0  0  0  0  0  0  0  0
   -8.3140   -0.0001    0.0000 C   0  0  0  0  0  0  0  0  0  0  0  0
   -8.3140    1.6001    0.0000 H   0  0  0  0  0  0  0  0  0  0  0  0
   -9.6995   -0.8000    0.0000 C   0  0  0  0  0  0  0  0  0  0  0  0
  -11.0851   -0.0001    0.0000 H   0  0  0  0  0  0  0  0  0  0  0  0
   -9.6995   -2.4000    0.0000 C   0  0  0  0  0  0  0  0  0  0  0  0
  -11.0851   -3.2000    0.0000 H   0  0  0  0  0  0  0  0  0  0  0  0
   -8.3140   -3.2000    0.0000 C   0  0  0  0  0  0  0  0  0  0  0  0
   -8.3140   -4.8000    0.0000 H   0  0  0  0  0  0  0  0  0  0  0  0
   -6.9281   -2.4000    0.0000 C   0  0  0  0  0  0  0  0  0  0  0  0
   -5.5426   -3.2000    0.0000 H   0  0  0  0  0  0  0  0  0  0  0  0
   -4.1570   -0.8000    0.0000 N   0  0  0  0  0  0  0  0  0  0  0  0
   -0.8000    1.3856    0.0000 S   0  0  0  0  0  0  0  0  0  0  0  0
  1  2  1  0  0  0  0
  2  3  1  0  0  0  0
  3  4  1  0  0  0  0
  4  5  1  0  0  0  0
  4  6  1  0  0  0  0
  4  7  1  0  0  0  0
  3  8  1  0  0  0  0
  3  9  1  0  0  0  0
  1 10  1  0  0  0  0
 10 11  1  0  0  0  0
 11 12  1  0  0  0  0
 12 13  1  0  0  0  0
 12 14  1  0  0  0  0
 12 15  1  0  0  0  0
 11 16  1  0  0  0  0
 11 17  1  0  0  0  0
  1 18  1  0  0  0  0
 18 19  1  0  0  0  0
 19 20  1  0  0  0  0
 20 21  1  0  0  0  0
 20 22  2  0  0  0  0
 22 23  1  0  0  0  0
 22 24  1  0  0  0  0
 24 25  2  0  0  0  0
 24 26  1  0  0  0  0
 26 27  1  0  0  0  0
 27 28  4  0  0  0  0
 28 29  1  0  0  0  0
 28 30  4  0  0  0  0
 30 31  1  0  0  0  0
 30 32  4  0  0  0  0
 32 33  1  0  0  0  0
 32 34  4  0  0  0  0
 34 35  1  0  0  0  0
 34 36  4  0  0  0  0
 36 27  4  0  0  0  0
 36 37  1  0  0  0  0
 26 38  1  0  0  0  0
 38 19  2  0  0  0  0
  1 39  2  0  0  0  0
M  END
> <CAS>
119-12-0

> <NAME>
PYRIDAPHENTHION

> <preferred_name>
Pyridaphenthion

> <iupac>
O,O-diethyl O-(6-oxo-1-phenyl-1,6-dihydropyridazin-3-yl) phosphorothioate

> <SMILES>
CCOP(=S)(OC1C=CC(=O)N(N=1)c1ccccc1)OCC

> <Canonical_QSARr>
CCOP(=S)(OC1C=CC(=O)N(N=1)c1ccccc1)OCC

> <InChI_Code_QSARr>
InChI=1S/C14H17N2O4PS/c1-3-18-21(22,19-4-2)20-13-10-11-14(17)16(15-13)12-8-6-5-7-9-12/h5-11H,3-4H2,1-2H3

> <InChI Key_QSARr>
CXJSOEPQXUCJSA-UHFFFAOYSA-N

> <Salt_Solvent>
?

> <WS Temperature>
20

> <WS Reference>
TOMLIN,C (1997)

> <dsstox_substance_id>
DTXSID2042355

> <LogMolar>
-3.5319

$$$$
119-33-5
  -INDIGO-01081615412D

 18 18  0  0  0  0  0  0  0  0999 V2000
    2.7713    1.6000    0.0000 C   0  0  0  0  0  0  0  0  0  0  0  0
    1.3856    2.4000    0.0000 C   0  0  0  0  0  0  0  0  0  0  0  0
    1.3856    4.0000    0.0000 H   0  0  0  0  0  0  0  0  0  0  0  0
    0.0000    1.6000    0.0000 C   0  0  0  0  0  0  0  0  0  0  0  0
   -1.3857    2.4000    0.0000 H   0  0  0  0  0  0  0  0  0  0  0  0
    0.0000    0.0000    0.0000 C   0  0  0  0  0  0  0  0  0  0  0  0
   -1.3856   -0.8000    0.0000 C   0  0  0  0  0  0  0  0  0  0  0  0
   -2.7713   -1.6000    0.0000 H   0  0  0  0  0  0  0  0  0  0  0  0
   -2.7713    0.0000    0.0000 H   0  0  0  0  0  0  0  0  0  0  0  0
   -1.3856   -2.4000    0.0000 H   0  0  0  0  0  0  0  0  0  0  0  0
    1.3856   -0.8000    0.0000 C   0  0  0  0  0  0  0  0  0  0  0  0
    1.3856   -2.4000    0.0000 H   0  0  0  0  0  0  0  0  0  0  0  0
    2.7713    0.0000    0.0000 C   0  0  0  0  0  0  0  0  0  0  0  0
    4.1570   -0.8000    0.0000 N   0  0  0  0  0  0  0  0  0  0  0  0
    5.5426    0.0000    0.0000 O   0  0  0  0  0  0  0  0  0  0  0  0
    4.1570   -2.4000    0.0000 O   0  0  0  0  0  0  0  0  0  0  0  0
    4.1569    2.4000    0.0000 O   0  0  0  0  0  0  0  0  0  0  0  0
    4.1569    4.0000    0.0000 H   0  0  0  0  0  0  0  0  0  0  0  0
  1  2  4  0  0  0  0
  2  3  1  0  0  0  0
  2  4  4  0  0  0  0
  4  5  1  0  0  0  0
  4  6  4  0  0  0  0
  6  7  1  0  0  0  0
  7  8  1  0  0  0  0
  7  9  1  0  0  0  0
  7 10  1  0  0  0  0
  6 11  4  0  0  0  0
 11 12  1  0  0  0  0
 11 13  4  0  0  0  0
 13  1  4  0  0  0  0
 13 14  1  0  0  0  0
 14 15  2  0  0  0  0
 14 16  1  0  0  0  0
  1 17  1  0  0  0  0
 17 18  1  0  0  0  0
M  CHG  2  14   1  16  -1
M  END
> <CAS>
119-33-5

> <NAME>
4-METHYL-2-NITROPHENOL

> <preferred_name>
4-Methyl-2-nitrophenol

> <iupac>
4-methyl-2-nitrophenol

> <SMILES>
Cc1cc(c(O)cc1)[N+]([O-])=O

> <Canonical_QSARr>
Cc1cc(c(O)cc1)[N+]([O-])=O

> <InChI_Code_QSARr>
InChI=1S/C7H7NO3/c1-5-2-3-7(9)6(4-5)8(10)11/h2-4,9H,1H3

> <InChI Key_QSARr>
SYDNSSSQVSOXTN-UHFFFAOYSA-N

> <Salt_Solvent>
?

> <WS Temperature>
25

> <WS Reference>
CHEMICALS INSPECTION AND TESTING INSTITU (1992)

> <dsstox_substance_id>
DTXSID0026961

> <LogMolar>
-2.3837

$$$$
119-48-2
  -INDIGO-01081615412D

 66 67  0  0  0  0  0  0  0  0999 V2000
    2.1889   -6.0141    0.0000 C   0  0  0  0  0  0  0  0  0  0  0  0
    1.6418   -4.5104    0.0000 C   0  0  0  0  0  0  0  0  0  0  0  0
    1.0945   -3.0070    0.0000 C   0  0  0  0  0  0  0  0  0  0  0  0
    0.5471   -1.5035    0.0000 C   0  0  0  0  0  0  0  0  0  0  0  0
    0.0001   -0.0001    0.0000 N   0  0  0  0  0  0  0  0  0  0  0  0
    0.5471    1.5036    0.0000 C   0  0  0  0  0  0  0  0  0  0  0  0
    1.9328    2.3036    0.0000 N   0  0  0  0  0  0  0  0  0  0  0  0
    3.3184    1.5036    0.0000 C   0  0  0  0  0  0  0  0  0  0  0  0
    2.2899    0.2779    0.0000 H   0  0  0  0  0  0  0  0  0  0  0  0
    4.3469    0.2779    0.0000 H   0  0  0  0  0  0  0  0  0  0  0  0
    4.7043    2.3036    0.0000 C   0  0  0  0  0  0  0  0  0  0  0  0
    5.2514    0.7999    0.0000 H   0  0  0  0  0  0  0  0  0  0  0  0
    6.2799    2.5814    0.0000 H   0  0  0  0  0  0  0  0  0  0  0  0
    4.7040    3.9034    0.0000 O   0  0  0  0  0  0  0  0  0  0  0  0
    3.3184    4.7035    0.0000 C   0  0  0  0  0  0  0  0  0  0  0  0
    4.3469    5.9292    0.0000 H   0  0  0  0  0  0  0  0  0  0  0  0
    2.2899    5.9292    0.0000 H   0  0  0  0  0  0  0  0  0  0  0  0
    1.9328    3.9034    0.0000 C   0  0  0  0  0  0  0  0  0  0  0  0
    1.3857    5.4071    0.0000 H   0  0  0  0  0  0  0  0  0  0  0  0
    0.3572    3.6257    0.0000 H   0  0  0  0  0  0  0  0  0  0  0  0
   -0.4813    2.7291    0.0000 O   0  0  0  0  0  0  0  0  0  0  0  0
   -1.5758    0.2779    0.0000 C   0  0  0  0  0  0  0  0  0  0  0  0
   -3.1513    0.5556    0.0000 C   0  0  0  0  0  0  0  0  0  0  0  0
   -4.7271    0.8336    0.0000 N   0  0  0  0  0  0  0  0  0  0  0  0
   -5.2742   -0.6701    0.0000 C   0  0  0  0  0  0  0  0  0  0  0  0
   -6.6598   -1.4701    0.0000 N   0  0  0  0  0  0  0  0  0  0  0  0
   -8.0455   -0.6701    0.0000 C   0  0  0  0  0  0  0  0  0  0  0  0
   -7.0173    0.5556    0.0000 H   0  0  0  0  0  0  0  0  0  0  0  0
   -9.0739    0.5556    0.0000 H   0  0  0  0  0  0  0  0  0  0  0  0
   -9.4311   -1.4701    0.0000 C   0  0  0  0  0  0  0  0  0  0  0  0
   -9.9784    0.0336    0.0000 H   0  0  0  0  0  0  0  0  0  0  0  0
  -11.0069   -1.7478    0.0000 H   0  0  0  0  0  0  0  0  0  0  0  0
   -9.4311   -3.0699    0.0000 O   0  0  0  0  0  0  0  0  0  0  0  0
   -8.0455   -3.8700    0.0000 C   0  0  0  0  0  0  0  0  0  0  0  0
   -9.0739   -5.0957    0.0000 H   0  0  0  0  0  0  0  0  0  0  0  0
   -7.0173   -5.0957    0.0000 H   0  0  0  0  0  0  0  0  0  0  0  0
   -6.6598   -3.0699    0.0000 C   0  0  0  0  0  0  0  0  0  0  0  0
   -6.1128   -4.5736    0.0000 H   0  0  0  0  0  0  0  0  0  0  0  0
   -5.0843   -2.7922    0.0000 H   0  0  0  0  0  0  0  0  0  0  0  0
   -4.2457   -1.8956    0.0000 O   0  0  0  0  0  0  0  0  0  0  0  0
   -5.2742    2.3370    0.0000 C   0  0  0  0  0  0  0  0  0  0  0  0
   -5.8215    3.8405    0.0000 C   0  0  0  0  0  0  0  0  0  0  0  0
   -6.3689    5.3439    0.0000 C   0  0  0  0  0  0  0  0  0  0  0  0
   -6.9160    6.8476    0.0000 C   0  0  0  0  0  0  0  0  0  0  0  0
   -7.4633    8.3511    0.0000 H   0  0  0  0  0  0  0  0  0  0  0  0
   -8.4918    7.1253    0.0000 H   0  0  0  0  0  0  0  0  0  0  0  0
   -5.8875    8.0733    0.0000 H   0  0  0  0  0  0  0  0  0  0  0  0
   -7.8722    4.7967    0.0000 H   0  0  0  0  0  0  0  0  0  0  0  0
   -4.8653    5.8912    0.0000 H   0  0  0  0  0  0  0  0  0  0  0  0
   -7.3251    3.2933    0.0000 H   0  0  0  0  0  0  0  0  0  0  0  0
   -4.3180    4.3877    0.0000 H   0  0  0  0  0  0  0  0  0  0  0  0
   -3.7709    2.8843    0.0000 H   0  0  0  0  0  0  0  0  0  0  0  0
   -6.7778    1.7898    0.0000 H   0  0  0  0  0  0  0  0  0  0  0  0
   -2.8736    2.1315    0.0000 H   0  0  0  0  0  0  0  0  0  0  0  0
   -3.4293   -1.0200    0.0000 H   0  0  0  0  0  0  0  0  0  0  0  0
   -1.8535   -1.2980    0.0000 H   0  0  0  0  0  0  0  0  0  0  0  0
   -1.2977    1.8535    0.0000 H   0  0  0  0  0  0  0  0  0  0  0  0
    2.0507   -0.9563    0.0000 H   0  0  0  0  0  0  0  0  0  0  0  0
   -0.9564   -2.0508    0.0000 H   0  0  0  0  0  0  0  0  0  0  0  0
    2.5980   -2.4597    0.0000 H   0  0  0  0  0  0  0  0  0  0  0  0
   -0.4091   -3.5542    0.0000 H   0  0  0  0  0  0  0  0  0  0  0  0
    3.1451   -3.9632    0.0000 H   0  0  0  0  0  0  0  0  0  0  0  0
    0.1383   -5.0576    0.0000 H   0  0  0  0  0  0  0  0  0  0  0  0
    2.7362   -7.5175    0.0000 H   0  0  0  0  0  0  0  0  0  0  0  0
    3.7647   -6.2918    0.0000 H   0  0  0  0  0  0  0  0  0  0  0  0
    1.1604   -7.2398    0.0000 H   0  0  0  0  0  0  0  0  0  0  0  0
  1  2  1  0  0  0  0
  2  3  1  0  0  0  0
  3  4  1  0  0  0  0
  4  5  1  0  0  0  0
  5  6  1  0  0  0  0
  6  7  1  0  0  0  0
  7  8  1  0  0  0  0
  8  9  1  0  0  0  0
  8 10  1  0  0  0  0
  8 11  1  0  0  0  0
 11 12  1  0  0  0  0
 11 13  1  0  0  0  0
 11 14  1  0  0  0  0
 14 15  1  0  0  0  0
 15 16  1  0  0  0  0
 15 17  1  0  0  0  0
 15 18  1  0  0  0  0
 18  7  1  0  0  0  0
 18 19  1  0  0  0  0
 18 20  1  0  0  0  0
  6 21  2  0  0  0  0
  5 22  1  0  0  0  0
 22 23  1  0  0  0  0
 23 24  1  0  0  0  0
 24 25  1  0  0  0  0
 25 26  1  0  0  0  0
 26 27  1  0  0  0  0
 27 28  1  0  0  0  0
 27 29  1  0  0  0  0
 27 30  1  0  0  0  0
 30 31  1  0  0  0  0
 30 32  1  0  0  0  0
 30 33  1  0  0  0  0
 33 34  1  0  0  0  0
 34 35  1  0  0  0  0
 34 36  1  0  0  0  0
 34 37  1  0  0  0  0
 37 26  1  0  0  0  0
 37 38  1  0  0  0  0
 37 39  1  0  0  0  0
 25 40  2  0  0  0  0
 24 41  1  0  0  0  0
 41 42  1  0  0  0  0
 42 43  1  0  0  0  0
 43 44  1  0  0  0  0
 44 45  1  0  0  0  0
 44 46  1  0  0  0  0
 44 47  1  0  0  0  0
 43 48  1  0  0  0  0
 43 49  1  0  0  0  0
 42 50  1  0  0  0  0
 42 51  1  0  0  0  0
 41 52  1  0  0  0  0
 41 53  1  0  0  0  0
 23 54  1  0  0  0  0
 23 55  1  0  0  0  0
 22 56  1  0  0  0  0
 22 57  1  0  0  0  0
  4 58  1  0  0  0  0
  4 59  1  0  0  0  0
  3 60  1  0  0  0  0
  3 61  1  0  0  0  0
  2 62  1  0  0  0  0
  2 63  1  0  0  0  0
  1 64  1  0  0  0  0
  1 65  1  0  0  0  0
  1 66  1  0  0  0  0
M  END
> <CAS>
119-48-2

> <NAME>
Dimorpholamine

> <preferred_name>
Dimorpholamine

> <iupac>
N,N'-ethane-1,2-diylbis(N-butylmorpholine-4-carboxamide)

> <SMILES>
CCCCN(CCN(CCCC)C(=O)N1CCOCC1)C(=O)N1CCOCC1

> <Canonical_QSARr>
CCCCN(CCN(CCCC)C(=O)N1CCOCC1)C(=O)N1CCOCC1

> <InChI_Code_QSARr>
InChI=1S/C20H38N4O4/c1-3-5-7-21(19(25)23-11-15-27-16-12-23)9-10-22(8-6-4-2)20(26)24-13-17-28-18-14-24/h3-18H2,1-2H3

> <InChI Key_QSARr>
HZTMGWSBSDLALI-UHFFFAOYSA-N

> <Salt_Solvent>
?

> <WS Temperature>


> <WS Reference>
MERCK INDEX (1996)

> <dsstox_substance_id>
DTXSID5057628

> <LogMolar>
0.0985

$$$$
119-64-2
  -INDIGO-01081615412D

 22 23  0  0  0  0  0  0  0  0999 V2000
   -2.7713   -0.0000    0.0000 C   0  0  0  0  0  0  0  0  0  0  0  0
   -4.1569    0.8000    0.0000 C   0  0  0  0  0  0  0  0  0  0  0  0
   -4.1569    2.4000    0.0000 H   0  0  0  0  0  0  0  0  0  0  0  0
   -5.5426   -0.0000    0.0000 C   0  0  0  0  0  0  0  0  0  0  0  0
   -6.9282    0.8000    0.0000 H   0  0  0  0  0  0  0  0  0  0  0  0
   -5.5426   -1.6000    0.0000 C   0  0  0  0  0  0  0  0  0  0  0  0
   -6.9282   -2.4000    0.0000 H   0  0  0  0  0  0  0  0  0  0  0  0
   -4.1569   -2.4000    0.0000 C   0  0  0  0  0  0  0  0  0  0  0  0
   -4.1569   -4.0000    0.0000 H   0  0  0  0  0  0  0  0  0  0  0  0
   -2.7713   -1.6000    0.0000 C   0  0  0  0  0  0  0  0  0  0  0  0
   -1.3856   -2.4000    0.0000 C   0  0  0  0  0  0  0  0  0  0  0  0
   -2.4141   -3.6257    0.0000 H   0  0  0  0  0  0  0  0  0  0  0  0
   -0.3572   -3.6257    0.0000 H   0  0  0  0  0  0  0  0  0  0  0  0
    0.0000   -1.6000    0.0000 C   0  0  0  0  0  0  0  0  0  0  0  0
    0.5472   -3.1035    0.0000 H   0  0  0  0  0  0  0  0  0  0  0  0
    1.5757   -1.3221    0.0000 H   0  0  0  0  0  0  0  0  0  0  0  0
    0.0000   -0.0000    0.0000 C   0  0  0  0  0  0  0  0  0  0  0  0
    1.5757   -0.2779    0.0000 H   0  0  0  0  0  0  0  0  0  0  0  0
    0.5472    1.5035    0.0000 H   0  0  0  0  0  0  0  0  0  0  0  0
   -1.3856    0.8000    0.0000 C   0  0  0  0  0  0  0  0  0  0  0  0
   -0.3572    2.0257    0.0000 H   0  0  0  0  0  0  0  0  0  0  0  0
   -2.4141    2.0257    0.0000 H   0  0  0  0  0  0  0  0  0  0  0  0
  1  2  4  0  0  0  0
  2  3  1  0  0  0  0
  2  4  4  0  0  0  0
  4  5  1  0  0  0  0
  4  6  4  0  0  0  0
  6  7  1  0  0  0  0
  6  8  4  0  0  0  0
  8  9  1  0  0  0  0
  8 10  4  0  0  0  0
 10  1  4  0  0  0  0
 10 11  1  0  0  0  0
 11 12  1  0  0  0  0
 11 13  1  0  0  0  0
 11 14  1  0  0  0  0
 14 15  1  0  0  0  0
 14 16  1  0  0  0  0
 14 17  1  0  0  0  0
 17 18  1  0  0  0  0
 17 19  1  0  0  0  0
 17 20  1  0  0  0  0
 20  1  1  0  0  0  0
 20 21  1  0  0  0  0
 20 22  1  0  0  0  0
M  END
> <CAS>
119-64-2

> <NAME>
TETRALIN

> <preferred_name>
Tetralin

> <iupac>
1,2,3,4-tetrahydronaphthalene

> <SMILES>
C1CCCc2ccccc21

> <Canonical_QSARr>
C1CCCc2ccccc21

> <InChI_Code_QSARr>
InChI=1S/C10H12/c1-2-6-10-8-4-3-7-9(10)5-1/h1-2,5-6H,3-4,7-8H2

> <InChI Key_QSARr>
CXWXQJXEFPUFDZ-UHFFFAOYSA-N

> <Salt_Solvent>
?

> <WS Temperature>
28

> <WS Reference>
YALKOWSKY,SH & DANNENFELSER,RM (1992)

> <dsstox_substance_id>
DTXSID1026118

> <LogMolar>
-3.4506

$$$$
119-90-4
  -INDIGO-01081615412D

 34 35  0  0  0  0  0  0  0  0999 V2000
    3.2001    2.7713    0.0000 O   0  0  0  0  0  0  0  0  0  0  0  0
    4.7999    2.7713    0.0000 C   0  0  0  0  0  0  0  0  0  0  0  0
    5.6000    4.1569    0.0000 H   0  0  0  0  0  0  0  0  0  0  0  0
    6.4000    2.7713    0.0000 H   0  0  0  0  0  0  0  0  0  0  0  0
    4.0001    4.1569    0.0000 H   0  0  0  0  0  0  0  0  0  0  0  0
    2.4000    1.3856    0.0000 C   0  0  0  0  0  0  0  0  0  0  0  0
    0.8000    1.3856    0.0000 C   0  0  0  0  0  0  0  0  0  0  0  0
   -0.0001    2.7713    0.0000 H   0  0  0  0  0  0  0  0  0  0  0  0
   -0.0001    0.0000    0.0000 C   0  0  0  0  0  0  0  0  0  0  0  0
   -1.5999    0.0000    0.0000 C   0  0  0  0  0  0  0  0  0  0  0  0
   -2.4000    1.3856    0.0000 C   0  0  0  0  0  0  0  0  0  0  0  0
   -1.5999    2.7713    0.0000 H   0  0  0  0  0  0  0  0  0  0  0  0
   -4.0000    1.3856    0.0000 C   0  0  0  0  0  0  0  0  0  0  0  0
   -4.8001    2.7713    0.0000 O   0  0  0  0  0  0  0  0  0  0  0  0
   -6.3999    2.7713    0.0000 C   0  0  0  0  0  0  0  0  0  0  0  0
   -7.2000    4.1569    0.0000 H   0  0  0  0  0  0  0  0  0  0  0  0
   -8.0000    2.7713    0.0000 H   0  0  0  0  0  0  0  0  0  0  0  0
   -5.5999    4.1569    0.0000 H   0  0  0  0  0  0  0  0  0  0  0  0
   -4.8001    0.0000    0.0000 C   0  0  0  0  0  0  0  0  0  0  0  0
   -6.3999    0.0000    0.0000 N   0  0  0  0  0  0  0  0  0  0  0  0
   -7.2000   -1.3856    0.0000 H   0  0  0  0  0  0  0  0  0  0  0  0
   -7.2000    1.3856    0.0000 H   0  0  0  0  0  0  0  0  0  0  0  0
   -4.0000   -1.3856    0.0000 C   0  0  0  0  0  0  0  0  0  0  0  0
   -4.8001   -2.7713    0.0000 H   0  0  0  0  0  0  0  0  0  0  0  0
   -2.4000   -1.3856    0.0000 C   0  0  0  0  0  0  0  0  0  0  0  0
   -1.5999   -2.7713    0.0000 H   0  0  0  0  0  0  0  0  0  0  0  0
    0.8000   -1.3856    0.0000 C   0  0  0  0  0  0  0  0  0  0  0  0
   -0.0001   -2.7713    0.0000 H   0  0  0  0  0  0  0  0  0  0  0  0
    2.4000   -1.3856    0.0000 C   0  0  0  0  0  0  0  0  0  0  0  0
    3.2001   -2.7713    0.0000 H   0  0  0  0  0  0  0  0  0  0  0  0
    3.2001    0.0000    0.0000 C   0  0  0  0  0  0  0  0  0  0  0  0
    4.7999    0.0000    0.0000 N   0  0  0  0  0  0  0  0  0  0  0  0
    5.6000   -1.3856    0.0000 H   0  0  0  0  0  0  0  0  0  0  0  0
    5.6000    1.3856    0.0000 H   0  0  0  0  0  0  0  0  0  0  0  0
  1  2  1  0  0  0  0
  2  3  1  0  0  0  0
  2  4  1  0  0  0  0
  2  5  1  0  0  0  0
  1  6  1  0  0  0  0
  6  7  4  0  0  0  0
  7  8  1  0  0  0  0
  7  9  4  0  0  0  0
  9 10  1  0  0  0  0
 10 11  4  0  0  0  0
 11 12  1  0  0  0  0
 11 13  4  0  0  0  0
 13 14  1  0  0  0  0
 14 15  1  0  0  0  0
 15 16  1  0  0  0  0
 15 17  1  0  0  0  0
 15 18  1  0  0  0  0
 13 19  4  0  0  0  0
 19 20  1  0  0  0  0
 20 21  1  0  0  0  0
 20 22  1  0  0  0  0
 19 23  4  0  0  0  0
 23 24  1  0  0  0  0
 23 25  4  0  0  0  0
 25 10  4  0  0  0  0
 25 26  1  0  0  0  0
  9 27  4  0  0  0  0
 27 28  1  0  0  0  0
 27 29  4  0  0  0  0
 29 30  1  0  0  0  0
 29 31  4  0  0  0  0
 31  6  4  0  0  0  0
 31 32  1  0  0  0  0
 32 33  1  0  0  0  0
 32 34  1  0  0  0  0
M  END
> <CAS>
119-90-4

> <NAME>
3,3'-DIMETHOXYBENZIDINE

> <preferred_name>
3,3'-Dimethoxybenzidine

> <iupac>
3,3'-dimethoxybiphenyl-4,4'-diamine

> <SMILES>
COc1cc(ccc1N)-c1cc(OC)c(N)cc1

> <Canonical_QSARr>
COc1cc(ccc1N)-c1cc(OC)c(N)cc1

> <InChI_Code_QSARr>
InChI=1S/C14H16N2O2/c1-17-13-7-9(3-5-11(13)15)10-4-6-12(16)14(8-10)18-2/h3-8H,15-16H2,1-2H3

> <InChI Key_QSARr>
JRBJSXQPQWSCCF-UHFFFAOYSA-N

> <Salt_Solvent>
?

> <WS Temperature>
25

> <WS Reference>
YALKOWSKY,SH & DANNENFELSER,RM (1992)

> <dsstox_substance_id>
DTXSID3025091

> <LogMolar>
-3.6098

$$$$
120-12-7
  -INDIGO-01081615412D

 24 26  0  0  0  0  0  0  0  0999 V2000
   -1.3856    0.8000    0.0000 C   0  0  0  0  0  0  0  0  0  0  0  0
   -2.7712   -0.0000    0.0000 C   0  0  0  0  0  0  0  0  0  0  0  0
   -4.1569    0.8000    0.0000 C   0  0  0  0  0  0  0  0  0  0  0  0
   -5.5425   -0.0000    0.0000 C   0  0  0  0  0  0  0  0  0  0  0  0
   -5.5425   -1.6000    0.0000 C   0  0  0  0  0  0  0  0  0  0  0  0
   -4.1569   -2.4000    0.0000 C   0  0  0  0  0  0  0  0  0  0  0  0
   -4.1569   -4.0000    0.0000 H   0  0  0  0  0  0  0  0  0  0  0  0
   -2.7712   -1.6000    0.0000 C   0  0  0  0  0  0  0  0  0  0  0  0
   -1.3856   -2.4000    0.0000 C   0  0  0  0  0  0  0  0  0  0  0  0
   -1.3856   -4.0000    0.0000 H   0  0  0  0  0  0  0  0  0  0  0  0
   -0.0001   -1.6000    0.0000 C   0  0  0  0  0  0  0  0  0  0  0  0
    1.3856   -2.4000    0.0000 C   0  0  0  0  0  0  0  0  0  0  0  0
    2.7713   -1.6000    0.0000 C   0  0  0  0  0  0  0  0  0  0  0  0
    2.7713   -0.0000    0.0000 C   0  0  0  0  0  0  0  0  0  0  0  0
    1.3856    0.8000    0.0000 C   0  0  0  0  0  0  0  0  0  0  0  0
    1.3856    2.4000    0.0000 H   0  0  0  0  0  0  0  0  0  0  0  0
   -0.0001   -0.0000    0.0000 C   0  0  0  0  0  0  0  0  0  0  0  0
    4.1569    0.8000    0.0000 H   0  0  0  0  0  0  0  0  0  0  0  0
    4.1569   -2.4000    0.0000 H   0  0  0  0  0  0  0  0  0  0  0  0
    1.3856   -4.0000    0.0000 H   0  0  0  0  0  0  0  0  0  0  0  0
   -6.9282   -2.4000    0.0000 H   0  0  0  0  0  0  0  0  0  0  0  0
   -6.9282    0.8000    0.0000 H   0  0  0  0  0  0  0  0  0  0  0  0
   -4.1569    2.4000    0.0000 H   0  0  0  0  0  0  0  0  0  0  0  0
   -1.3856    2.4000    0.0000 H   0  0  0  0  0  0  0  0  0  0  0  0
  1  2  4  0  0  0  0
  2  3  4  0  0  0  0
  3  4  4  0  0  0  0
  4  5  4  0  0  0  0
  5  6  4  0  0  0  0
  6  7  1  0  0  0  0
  6  8  4  0  0  0  0
  8  2  4  0  0  0  0
  8  9  4  0  0  0  0
  9 10  1  0  0  0  0
  9 11  4  0  0  0  0
 11 12  4  0  0  0  0
 12 13  4  0  0  0  0
 13 14  4  0  0  0  0
 14 15  4  0  0  0  0
 15 16  1  0  0  0  0
 15 17  4  0  0  0  0
 17  1  4  0  0  0  0
 17 11  4  0  0  0  0
 14 18  1  0  0  0  0
 13 19  1  0  0  0  0
 12 20  1  0  0  0  0
  5 21  1  0  0  0  0
  4 22  1  0  0  0  0
  3 23  1  0  0  0  0
  1 24  1  0  0  0  0
M  END
> <CAS>
120-12-7

> <NAME>
ANTHRACENE

> <preferred_name>
Anthracene

> <iupac>
anthracene

> <SMILES>
c1c2ccccc2cc2ccccc21

> <Canonical_QSARr>
c1c2ccccc2cc2ccccc21

> <InChI_Code_QSARr>
InChI=1S/C14H10/c1-2-6-12-10-14-8-4-3-7-13(14)9-11(12)5-1/h1-10H

> <InChI Key_QSARr>
MWPLVEDNUUSJAV-UHFFFAOYSA-N

> <Salt_Solvent>
?

> <WS Temperature>
24

> <WS Reference>
MAY,WE ET AL. (1983)

> <dsstox_substance_id>
DTXSID0023878

> <LogMolar>
-6.6135

$$$$
120-32-1
  -INDIGO-01081615412D

 26 27  0  0  0  0  0  0  0  0999 V2000
   -1.5999    2.7713    0.0000 O   0  0  0  0  0  0  0  0  0  0  0  0
   -2.3999    1.3856    0.0000 C   0  0  0  0  0  0  0  0  0  0  0  0
   -4.0000    1.3856    0.0000 C   0  0  0  0  0  0  0  0  0  0  0  0
   -4.8000    2.7713    0.0000 H   0  0  0  0  0  0  0  0  0  0  0  0
   -4.8000    0.0000    0.0000 C   0  0  0  0  0  0  0  0  0  0  0  0
   -6.4000    0.0000    0.0000 H   0  0  0  0  0  0  0  0  0  0  0  0
   -4.0000   -1.3856    0.0000 C   0  0  0  0  0  0  0  0  0  0  0  0
   -4.8000   -2.7713    0.0000 Cl  0  0  0  0  0  0  0  0  0  0  0  0
   -2.3999   -1.3856    0.0000 C   0  0  0  0  0  0  0  0  0  0  0  0
   -1.5999   -2.7713    0.0000 H   0  0  0  0  0  0  0  0  0  0  0  0
   -1.5999    0.0000    0.0000 C   0  0  0  0  0  0  0  0  0  0  0  0
    0.0001    0.0000    0.0000 C   0  0  0  0  0  0  0  0  0  0  0  0
    1.5999    0.0000    0.0000 C   0  0  0  0  0  0  0  0  0  0  0  0
    2.3999   -1.3856    0.0000 C   0  0  0  0  0  0  0  0  0  0  0  0
    1.5999   -2.7713    0.0000 H   0  0  0  0  0  0  0  0  0  0  0  0
    4.0000   -1.3856    0.0000 C   0  0  0  0  0  0  0  0  0  0  0  0
    4.8000   -2.7713    0.0000 H   0  0  0  0  0  0  0  0  0  0  0  0
    4.8000    0.0000    0.0000 C   0  0  0  0  0  0  0  0  0  0  0  0
    6.4000    0.0000    0.0000 H   0  0  0  0  0  0  0  0  0  0  0  0
    4.0000    1.3856    0.0000 C   0  0  0  0  0  0  0  0  0  0  0  0
    4.8000    2.7713    0.0000 H   0  0  0  0  0  0  0  0  0  0  0  0
    2.3999    1.3856    0.0000 C   0  0  0  0  0  0  0  0  0  0  0  0
    1.5999    2.7713    0.0000 H   0  0  0  0  0  0  0  0  0  0  0  0
    0.0001   -1.6000    0.0000 H   0  0  0  0  0  0  0  0  0  0  0  0
   -0.0001    1.6000    0.0000 H   0  0  0  0  0  0  0  0  0  0  0  0
   -2.3999    4.1569    0.0000 H   0  0  0  0  0  0  0  0  0  0  0  0
  1  2  1  0  0  0  0
  2  3  4  0  0  0  0
  3  4  1  0  0  0  0
  3  5  4  0  0  0  0
  5  6  1  0  0  0  0
  5  7  4  0  0  0  0
  7  8  1  0  0  0  0
  7  9  4  0  0  0  0
  9 10  1  0  0  0  0
  9 11  4  0  0  0  0
 11  2  4  0  0  0  0
 11 12  1  0  0  0  0
 12 13  1  0  0  0  0
 13 14  4  0  0  0  0
 14 15  1  0  0  0  0
 14 16  4  0  0  0  0
 16 17  1  0  0  0  0
 16 18  4  0  0  0  0
 18 19  1  0  0  0  0
 18 20  4  0  0  0  0
 20 21  1  0  0  0  0
 20 22  4  0  0  0  0
 22 13  4  0  0  0  0
 22 23  1  0  0  0  0
 12 24  1  0  0  0  0
 12 25  1  0  0  0  0
  1 26  1  0  0  0  0
M  END
> <CAS>
120-32-1

> <NAME>
5-CHLORO-2-HYDROXYDIPHENYLMETHANE

> <preferred_name>
Clorophene

> <iupac>
C13H11ClO

> <SMILES>
Oc1ccc(Cl)cc1Cc1ccccc1

> <Canonical_QSARr>
Oc1ccc(Cl)cc1Cc1ccccc1

> <InChI_Code_QSARr>
InChI=1S/C13H11ClO/c14-12-6-7-13(15)11(9-12)8-10-4-2-1-3-5-10/h1-7,9,15H,8H2

> <InChI Key_QSARr>
NCKMMSIFQUPKCK-UHFFFAOYSA-N

> <Salt_Solvent>
?

> <WS Temperature>
25

> <WS Reference>
WERNER,AF ET AL. (1983)

> <dsstox_substance_id>
DTXSID5020154

> <LogMolar>
-3.1666

$$$$
120-61-6
  -INDIGO-01081615412D

 24 24  0  0  0  0  0  0  0  0999 V2000
    2.4001    1.3856    0.0000 O   0  0  0  0  0  0  0  0  0  0  0  0
    1.6000    0.0000    0.0000 C   0  0  0  0  0  0  0  0  0  0  0  0
    2.4001   -1.3856    0.0000 O   0  0  0  0  0  0  0  0  0  0  0  0
    3.9999   -1.3856    0.0000 C   0  0  0  0  0  0  0  0  0  0  0  0
    5.6000   -1.3856    0.0000 H   0  0  0  0  0  0  0  0  0  0  0  0
    4.8000   -2.7713    0.0000 H   0  0  0  0  0  0  0  0  0  0  0  0
    4.8000    0.0000    0.0000 H   0  0  0  0  0  0  0  0  0  0  0  0
   -0.0000   -0.0000    0.0000 C   0  0  0  0  0  0  0  0  0  0  0  0
   -0.8001    1.3856    0.0000 C   0  0  0  0  0  0  0  0  0  0  0  0
   -0.0000    2.7713    0.0000 H   0  0  0  0  0  0  0  0  0  0  0  0
   -2.3999    1.3856    0.0000 C   0  0  0  0  0  0  0  0  0  0  0  0
   -3.2000    2.7713    0.0000 H   0  0  0  0  0  0  0  0  0  0  0  0
   -3.2000   -0.0000    0.0000 C   0  0  0  0  0  0  0  0  0  0  0  0
   -4.8000   -0.0000    0.0000 C   0  0  0  0  0  0  0  0  0  0  0  0
   -5.6001    1.3856    0.0000 O   0  0  0  0  0  0  0  0  0  0  0  0
   -7.1999    1.3856    0.0000 C   0  0  0  0  0  0  0  0  0  0  0  0
   -8.8000    1.3856    0.0000 H   0  0  0  0  0  0  0  0  0  0  0  0
   -8.0000    2.7713    0.0000 H   0  0  0  0  0  0  0  0  0  0  0  0
   -8.0000   -0.0000    0.0000 H   0  0  0  0  0  0  0  0  0  0  0  0
   -5.6001   -1.3856    0.0000 O   0  0  0  0  0  0  0  0  0  0  0  0
   -2.3999   -1.3856    0.0000 C   0  0  0  0  0  0  0  0  0  0  0  0
   -3.2000   -2.7713    0.0000 H   0  0  0  0  0  0  0  0  0  0  0  0
   -0.8001   -1.3856    0.0000 C   0  0  0  0  0  0  0  0  0  0  0  0
   -0.0000   -2.7713    0.0000 H   0  0  0  0  0  0  0  0  0  0  0  0
  1  2  2  0  0  0  0
  2  3  1  0  0  0  0
  3  4  1  0  0  0  0
  4  5  1  0  0  0  0
  4  6  1  0  0  0  0
  4  7  1  0  0  0  0
  2  8  1  0  0  0  0
  8  9  4  0  0  0  0
  9 10  1  0  0  0  0
  9 11  4  0  0  0  0
 11 12  1  0  0  0  0
 11 13  4  0  0  0  0
 13 14  1  0  0  0  0
 14 15  1  0  0  0  0
 15 16  1  0  0  0  0
 16 17  1  0  0  0  0
 16 18  1  0  0  0  0
 16 19  1  0  0  0  0
 14 20  2  0  0  0  0
 13 21  4  0  0  0  0
 21 22  1  0  0  0  0
 21 23  4  0  0  0  0
 23  8  4  0  0  0  0
 23 24  1  0  0  0  0
M  END
> <CAS>
120-61-6

> <NAME>
DIMETHYLTEREPHTHALATE

> <preferred_name>
Dimethyl terephthalate

> <iupac>
dimethyl benzene-1,4-dicarboxylate

> <SMILES>
COC(=O)c1ccc(cc1)C(=O)OC

> <Canonical_QSARr>
COC(=O)c1ccc(cc1)C(=O)OC

> <InChI_Code_QSARr>
InChI=1S/C10H10O4/c1-13-9(11)7-3-5-8(6-4-7)10(12)14-2/h3-6H,1-2H3

> <InChI Key_QSARr>
WOZVHXUHUFLZGK-UHFFFAOYSA-N

> <Salt_Solvent>
?

> <WS Temperature>
25

> <WS Reference>
KUHNE,R ET AL. (1995)

> <dsstox_substance_id>
DTXSID0020498

> <LogMolar>
-4.0095

$$$$
120-80-9
  -INDIGO-01081615412D

 14 14  0  0  0  0  0  0  0  0999 V2000
   -0.8000    1.3856    0.0000 O   0  0  0  0  0  0  0  0  0  0  0  0
    0.0000   -0.0000    0.0000 C   0  0  0  0  0  0  0  0  0  0  0  0
   -0.8000   -1.3857    0.0000 C   0  0  0  0  0  0  0  0  0  0  0  0
   -2.4000   -1.3857    0.0000 H   0  0  0  0  0  0  0  0  0  0  0  0
    0.0000   -2.7713    0.0000 C   0  0  0  0  0  0  0  0  0  0  0  0
   -0.8000   -4.1569    0.0000 H   0  0  0  0  0  0  0  0  0  0  0  0
    1.6000   -2.7713    0.0000 C   0  0  0  0  0  0  0  0  0  0  0  0
    2.4000   -4.1569    0.0000 H   0  0  0  0  0  0  0  0  0  0  0  0
    2.4000   -1.3857    0.0000 C   0  0  0  0  0  0  0  0  0  0  0  0
    4.0000   -1.3857    0.0000 H   0  0  0  0  0  0  0  0  0  0  0  0
    1.6000   -0.0000    0.0000 C   0  0  0  0  0  0  0  0  0  0  0  0
    2.4000    1.3856    0.0000 O   0  0  0  0  0  0  0  0  0  0  0  0
    4.0000    1.3856    0.0000 H   0  0  0  0  0  0  0  0  0  0  0  0
   -2.4000    1.3856    0.0000 H   0  0  0  0  0  0  0  0  0  0  0  0
  1  2  1  0  0  0  0
  2  3  4  0  0  0  0
  3  4  1  0  0  0  0
  3  5  4  0  0  0  0
  5  6  1  0  0  0  0
  5  7  4  0  0  0  0
  7  8  1  0  0  0  0
  7  9  4  0  0  0  0
  9 10  1  0  0  0  0
  9 11  4  0  0  0  0
 11  2  4  0  0  0  0
 11 12  1  0  0  0  0
 12 13  1  0  0  0  0
  1 14  1  0  0  0  0
M  END
> <CAS>
120-80-9

> <NAME>
CATECHOL

> <preferred_name>
Catechol

> <iupac>
benzene-1,2-diol

> <SMILES>
Oc1ccccc1O

> <Canonical_QSARr>
Oc1ccccc1O

> <InChI_Code_QSARr>
InChI=1S/C6H6O2/c7-5-3-1-2-4-6(5)8/h1-4,7-8H

> <InChI Key_QSARr>
YCIMNLLNPGFGHC-UHFFFAOYSA-N

> <Salt_Solvent>
?

> <WS Temperature>
25

> <WS Reference>
YALKOWSKY,SH & HE,Y (2003)

> <dsstox_substance_id>
DTXSID3020257

> <LogMolar>
0.6219

$$$$
121-03-9
  -INDIGO-01081615412D

 21 21  0  0  0  0  0  0  0  0999 V2000
   -0.0000   -0.0000    0.0000 C   0  0  0  0  0  0  0  0  0  0  0  0
   -1.3856    0.8000    0.0000 S   0  0  0  0  0  0  0  0  0  0  0  0
   -0.5856    2.1856    0.0000 O   0  0  0  0  0  0  0  0  0  0  0  0
   -2.7713    1.6000    0.0000 O   0  0  0  0  0  0  0  0  0  0  0  0
   -2.7713    3.2000    0.0000 H   0  0  0  0  0  0  0  0  0  0  0  0
   -2.1857   -0.5856    0.0000 O   0  0  0  0  0  0  0  0  0  0  0  0
   -0.0000   -1.6000    0.0000 C   0  0  0  0  0  0  0  0  0  0  0  0
   -1.3856   -2.4000    0.0000 C   0  0  0  0  0  0  0  0  0  0  0  0
   -2.7713   -3.2000    0.0000 H   0  0  0  0  0  0  0  0  0  0  0  0
   -1.3856   -4.0000    0.0000 H   0  0  0  0  0  0  0  0  0  0  0  0
   -2.7713   -1.6000    0.0000 H   0  0  0  0  0  0  0  0  0  0  0  0
    1.3857   -2.4000    0.0000 C   0  0  0  0  0  0  0  0  0  0  0  0
    1.3857   -4.0000    0.0000 H   0  0  0  0  0  0  0  0  0  0  0  0
    2.7713   -1.6000    0.0000 C   0  0  0  0  0  0  0  0  0  0  0  0
    4.1570   -2.4000    0.0000 H   0  0  0  0  0  0  0  0  0  0  0  0
    2.7713   -0.0000    0.0000 C   0  0  0  0  0  0  0  0  0  0  0  0
    4.1570    0.8000    0.0000 N   0  0  0  0  0  0  0  0  0  0  0  0
    5.5426   -0.0000    0.0000 O   0  0  0  0  0  0  0  0  0  0  0  0
    4.1570    2.4000    0.0000 O   0  0  0  0  0  0  0  0  0  0  0  0
    1.3857    0.8000    0.0000 C   0  0  0  0  0  0  0  0  0  0  0  0
    1.3857    2.4000    0.0000 H   0  0  0  0  0  0  0  0  0  0  0  0
  1  2  1  0  0  0  0
  2  3  2  0  0  0  0
  2  4  1  0  0  0  0
  4  5  1  0  0  0  0
  2  6  2  0  0  0  0
  1  7  4  0  0  0  0
  7  8  1  0  0  0  0
  8  9  1  0  0  0  0
  8 10  1  0  0  0  0
  8 11  1  0  0  0  0
  7 12  4  0  0  0  0
 12 13  1  0  0  0  0
 12 14  4  0  0  0  0
 14 15  1  0  0  0  0
 14 16  4  0  0  0  0
 16 17  1  0  0  0  0
 17 18  2  0  0  0  0
 17 19  1  0  0  0  0
 16 20  4  0  0  0  0
 20  1  4  0  0  0  0
 20 21  1  0  0  0  0
M  CHG  2  17   1  19  -1
M  END
> <CAS>
121-03-9

> <NAME>
BENZENESULFONIC ACID, 2-METHYL-5-NITRO-

> <preferred_name>
2-Methyl-5-nitrobenzenesulfonic acid

> <iupac>
2-methyl-5-nitrobenzenesulfonic acid

> <SMILES>
Cc1ccc(cc1S(O)(=O)=O)[N+]([O-])=O

> <Canonical_QSARr>
Cc1ccc(cc1S(O)(=O)=O)[N+]([O-])=O

> <InChI_Code_QSARr>
InChI=1S/C7H7NO5S/c1-5-2-3-6(8(9)10)4-7(5)14(11,12)13/h2-4H,1H3,(H,11,12,13)

> <InChI Key_QSARr>
ZDTXQHVBLWYPHS-UHFFFAOYSA-N

> <Salt_Solvent>
?

> <WS Temperature>
23

> <WS Reference>
BEILSTEIN

> <dsstox_substance_id>
DTXSID4026975

> <LogMolar>
0.4873

$$$$
121-32-4
  -INDIGO-01081615412D

 22 22  0  0  0  0  0  0  0  0999 V2000
   -0.0001    4.8000    0.0000 O   0  0  0  0  0  0  0  0  0  0  0  0
   -1.3857    3.9999    0.0000 C   0  0  0  0  0  0  0  0  0  0  0  0
   -1.3857    2.4001    0.0000 C   0  0  0  0  0  0  0  0  0  0  0  0
   -2.7713    1.6000    0.0000 C   0  0  0  0  0  0  0  0  0  0  0  0
   -4.1569    2.3999    0.0000 H   0  0  0  0  0  0  0  0  0  0  0  0
   -2.7713    0.0000    0.0000 C   0  0  0  0  0  0  0  0  0  0  0  0
   -4.1569   -0.8001    0.0000 H   0  0  0  0  0  0  0  0  0  0  0  0
   -1.3857   -0.8001    0.0000 C   0  0  0  0  0  0  0  0  0  0  0  0
   -1.3857   -2.4001    0.0000 O   0  0  0  0  0  0  0  0  0  0  0  0
   -2.7713   -3.2000    0.0000 H   0  0  0  0  0  0  0  0  0  0  0  0
   -0.0001    0.0000    0.0000 C   0  0  0  0  0  0  0  0  0  0  0  0
    1.3857   -0.8001    0.0000 O   0  0  0  0  0  0  0  0  0  0  0  0
    2.7713    0.0000    0.0000 C   0  0  0  0  0  0  0  0  0  0  0  0
    4.1569    0.8001    0.0000 C   0  0  0  0  0  0  0  0  0  0  0  0
    5.5426    1.6000    0.0000 H   0  0  0  0  0  0  0  0  0  0  0  0
    5.5426    0.0000    0.0000 H   0  0  0  0  0  0  0  0  0  0  0  0
    4.1569    2.4001    0.0000 H   0  0  0  0  0  0  0  0  0  0  0  0
    3.5713   -1.3856    0.0000 H   0  0  0  0  0  0  0  0  0  0  0  0
    1.9712    1.3856    0.0000 H   0  0  0  0  0  0  0  0  0  0  0  0
   -0.0001    1.6000    0.0000 C   0  0  0  0  0  0  0  0  0  0  0  0
    1.3857    2.4001    0.0000 H   0  0  0  0  0  0  0  0  0  0  0  0
   -2.7713    4.8000    0.0000 H   0  0  0  0  0  0  0  0  0  0  0  0
  1  2  2  0  0  0  0
  2  3  1  0  0  0  0
  3  4  4  0  0  0  0
  4  5  1  0  0  0  0
  4  6  4  0  0  0  0
  6  7  1  0  0  0  0
  6  8  4  0  0  0  0
  8  9  1  0  0  0  0
  9 10  1  0  0  0  0
  8 11  4  0  0  0  0
 11 12  1  0  0  0  0
 12 13  1  0  0  0  0
 13 14  1  0  0  0  0
 14 15  1  0  0  0  0
 14 16  1  0  0  0  0
 14 17  1  0  0  0  0
 13 18  1  0  0  0  0
 13 19  1  0  0  0  0
 11 20  4  0  0  0  0
 20  3  4  0  0  0  0
 20 21  1  0  0  0  0
  2 22  1  0  0  0  0
M  END
> <CAS>
121-32-4

> <NAME>
BENZALDEHYDE, 3-ETHOXY-4-HYDROXY-

> <preferred_name>
3-Ethoxy-4-hydroxybenzaldehyde

> <iupac>
3-ethoxy-4-hydroxybenzaldehyde

> <SMILES>
CCOc1cc(C=O)ccc1O

> <Canonical_QSARr>
CCOc1cc(C=O)ccc1O

> <InChI_Code_QSARr>
InChI=1S/C9H10O3/c1-2-12-9-5-7(6-10)3-4-8(9)11/h3-6,11H,2H2,1H3

> <InChI Key_QSARr>
CBOQJANXLMLOSS-UHFFFAOYSA-N

> <Salt_Solvent>
?

> <WS Temperature>
25

> <WS Reference>
JIN,LJ ET AL. (1998)

> <dsstox_substance_id>
DTXSID5021968

> <LogMolar>
-1.7703

$$$$
121-57-3
  -INDIGO-01081615412D

 18 18  0  0  0  0  0  0  0  0999 V2000
    1.6000    1.6000    0.0000 O   0  0  0  0  0  0  0  0  0  0  0  0
    1.6000    0.0000    0.0000 S   0  0  0  0  0  0  0  0  0  0  0  0
    0.0000   -0.0000    0.0000 C   0  0  0  0  0  0  0  0  0  0  0  0
   -0.8001    1.3856    0.0000 C   0  0  0  0  0  0  0  0  0  0  0  0
    0.0000    2.7713    0.0000 H   0  0  0  0  0  0  0  0  0  0  0  0
   -2.4000    1.3856    0.0000 C   0  0  0  0  0  0  0  0  0  0  0  0
   -3.2000    2.7713    0.0000 H   0  0  0  0  0  0  0  0  0  0  0  0
   -3.2000   -0.0000    0.0000 C   0  0  0  0  0  0  0  0  0  0  0  0
   -4.8000   -0.0000    0.0000 N   0  0  0  0  0  0  0  0  0  0  0  0
   -5.6000    1.3856    0.0000 H   0  0  0  0  0  0  0  0  0  0  0  0
   -5.6000   -1.3856    0.0000 H   0  0  0  0  0  0  0  0  0  0  0  0
   -2.4000   -1.3856    0.0000 C   0  0  0  0  0  0  0  0  0  0  0  0
   -3.2000   -2.7713    0.0000 H   0  0  0  0  0  0  0  0  0  0  0  0
   -0.8001   -1.3856    0.0000 C   0  0  0  0  0  0  0  0  0  0  0  0
    0.0000   -2.7713    0.0000 H   0  0  0  0  0  0  0  0  0  0  0  0
    3.2000    0.0000    0.0000 O   0  0  0  0  0  0  0  0  0  0  0  0
    4.0000   -1.3856    0.0000 H   0  0  0  0  0  0  0  0  0  0  0  0
    1.6000   -1.6000    0.0000 O   0  0  0  0  0  0  0  0  0  0  0  0
  1  2  2  0  0  0  0
  2  3  1  0  0  0  0
  3  4  4  0  0  0  0
  4  5  1  0  0  0  0
  4  6  4  0  0  0  0
  6  7  1  0  0  0  0
  6  8  4  0  0  0  0
  8  9  1  0  0  0  0
  9 10  1  0  0  0  0
  9 11  1  0  0  0  0
  8 12  4  0  0  0  0
 12 13  1  0  0  0  0
 12 14  4  0  0  0  0
 14  3  4  0  0  0  0
 14 15  1  0  0  0  0
  2 16  1  0  0  0  0
 16 17  1  0  0  0  0
  2 18  2  0  0  0  0
M  END
> <CAS>
121-57-3

> <NAME>
BENZENESULFONIC ACID, 4-AMINO-

> <preferred_name>
4-Aminobenzenesulfonic acid

> <iupac>
4-aminobenzenesulfonic acid

> <SMILES>
Nc1ccc(cc1)S(O)(=O)=O

> <Canonical_QSARr>
Nc1ccc(cc1)S(O)(=O)=O

> <InChI_Code_QSARr>
InChI=1S/C6H7NO3S/c7-5-1-3-6(4-2-5)11(8,9)10/h1-4H,7H2,(H,8,9,10)

> <InChI Key_QSARr>
HVBSAKJJOYLTQU-UHFFFAOYSA-N

> <Salt_Solvent>
?

> <WS Temperature>
20

> <WS Reference>
YALKOWSKY,SH & DANNENFELSER,RM (1992)

> <dsstox_substance_id>
DTXSID6024464

> <LogMolar>
-1.2051

$$$$
121-75-5
  -INDIGO-01081615412D

 38 37  0  0  0  0  0  0  0  0999 V2000
   -2.3999    1.3856    0.0000 O   0  0  0  0  0  0  0  0  0  0  0  0
   -1.6000   -0.0000    0.0000 C   0  0  0  0  0  0  0  0  0  0  0  0
   -2.3999   -1.3856    0.0000 O   0  0  0  0  0  0  0  0  0  0  0  0
   -4.0000   -1.3856    0.0000 C   0  0  0  0  0  0  0  0  0  0  0  0
   -5.5999   -1.3856    0.0000 C   0  0  0  0  0  0  0  0  0  0  0  0
   -7.2000   -1.3856    0.0000 H   0  0  0  0  0  0  0  0  0  0  0  0
   -6.4001   -2.7713    0.0000 H   0  0  0  0  0  0  0  0  0  0  0  0
   -6.4001   -0.0000    0.0000 H   0  0  0  0  0  0  0  0  0  0  0  0
   -4.0000   -2.9856    0.0000 H   0  0  0  0  0  0  0  0  0  0  0  0
   -4.0000    0.2144    0.0000 H   0  0  0  0  0  0  0  0  0  0  0  0
   -0.0001   -0.0000    0.0000 C   0  0  0  0  0  0  0  0  0  0  0  0
    1.5034   -0.5471    0.0000 C   0  0  0  0  0  0  0  0  0  0  0  0
    3.0070   -1.0945    0.0000 C   0  0  0  0  0  0  0  0  0  0  0  0
    3.2848   -2.6701    0.0000 O   0  0  0  0  0  0  0  0  0  0  0  0
    4.7883   -3.2174    0.0000 C   0  0  0  0  0  0  0  0  0  0  0  0
    6.2918   -3.7645    0.0000 C   0  0  0  0  0  0  0  0  0  0  0  0
    7.7954   -4.3119    0.0000 H   0  0  0  0  0  0  0  0  0  0  0  0
    6.5696   -5.3403    0.0000 H   0  0  0  0  0  0  0  0  0  0  0  0
    7.5176   -2.7361    0.0000 H   0  0  0  0  0  0  0  0  0  0  0  0
    4.2412   -4.7209    0.0000 H   0  0  0  0  0  0  0  0  0  0  0  0
    5.3356   -1.7139    0.0000 H   0  0  0  0  0  0  0  0  0  0  0  0
    4.2327   -0.0660    0.0000 O   0  0  0  0  0  0  0  0  0  0  0  0
    0.9563   -2.0507    0.0000 H   0  0  0  0  0  0  0  0  0  0  0  0
    2.0508    0.9564    0.0000 H   0  0  0  0  0  0  0  0  0  0  0  0
   -0.0001    1.6000    0.0000 S   0  0  0  0  0  0  0  0  0  0  0  0
    1.0284    2.8258    0.0000 P   0  0  0  0  0  0  0  0  0  0  0  0
    2.0569    4.0513    0.0000 O   0  0  0  0  0  0  0  0  0  0  0  0
    1.5096    5.5549    0.0000 C   0  0  0  0  0  0  0  0  0  0  0  0
    0.9625    7.0584    0.0000 H   0  0  0  0  0  0  0  0  0  0  0  0
    2.5381    6.7804    0.0000 H   0  0  0  0  0  0  0  0  0  0  0  0
   -0.0660    5.8328    0.0000 H   0  0  0  0  0  0  0  0  0  0  0  0
   -0.1971    3.8542    0.0000 O   0  0  0  0  0  0  0  0  0  0  0  0
   -1.7007    3.3069    0.0000 C   0  0  0  0  0  0  0  0  0  0  0  0
   -2.9264    4.3353    0.0000 H   0  0  0  0  0  0  0  0  0  0  0  0
   -3.2042    2.7597    0.0000 H   0  0  0  0  0  0  0  0  0  0  0  0
   -1.4229    4.8827    0.0000 H   0  0  0  0  0  0  0  0  0  0  0  0
    2.5320    2.2784    0.0000 S   0  0  0  0  0  0  0  0  0  0  0  0
   -0.0001   -1.6000    0.0000 H   0  0  0  0  0  0  0  0  0  0  0  0
  1  2  2  0  0  0  0
  2  3  1  0  0  0  0
  3  4  1  0  0  0  0
  4  5  1  0  0  0  0
  5  6  1  0  0  0  0
  5  7  1  0  0  0  0
  5  8  1  0  0  0  0
  4  9  1  0  0  0  0
  4 10  1  0  0  0  0
  2 11  1  0  0  0  0
 11 12  1  0  0  0  0
 12 13  1  0  0  0  0
 13 14  1  0  0  0  0
 14 15  1  0  0  0  0
 15 16  1  0  0  0  0
 16 17  1  0  0  0  0
 16 18  1  0  0  0  0
 16 19  1  0  0  0  0
 15 20  1  0  0  0  0
 15 21  1  0  0  0  0
 13 22  2  0  0  0  0
 12 23  1  0  0  0  0
 12 24  1  0  0  0  0
 11 25  1  0  0  0  0
 25 26  1  0  0  0  0
 26 27  1  0  0  0  0
 27 28  1  0  0  0  0
 28 29  1  0  0  0  0
 28 30  1  0  0  0  0
 28 31  1  0  0  0  0
 26 32  1  0  0  0  0
 32 33  1  0  0  0  0
 33 34  1  0  0  0  0
 33 35  1  0  0  0  0
 33 36  1  0  0  0  0
 26 37  2  0  0  0  0
 11 38  1  0  0  0  0
M  END
> <CAS>
121-75-5

> <NAME>
MALATHION

> <preferred_name>
Malathion

> <iupac>
diethyl 2-[(dimethoxyphosphorothioyl)sulfanyl]butanedioate

> <SMILES>
CCOC(=O)C(CC(=O)OCC)SP(=S)(OC)OC

> <Canonical_QSARr>
CCOC(=O)C(CC(=O)OCC)SP(=S)(OC)OC

> <InChI_Code_QSARr>
InChI=1S/C10H19O6PS2/c1-5-15-9(11)7-8(10(12)16-6-2)19-17(18,13-3)14-4/h8H,5-7H2,1-4H3

> <InChI Key_QSARr>
JXSJBGJIGXNWCI-UHFFFAOYSA-N

> <Salt_Solvent>
?

> <WS Temperature>
20

> <WS Reference>
BOWMAN,BT & SANS,WW (1983)

> <dsstox_substance_id>
DTXSID4020791

> <LogMolar>
-3.3637

$$$$
121-92-6
  -INDIGO-01081615412D

 17 17  0  0  0  0  0  0  0  0999 V2000
    1.3857    0.8000    0.0000 C   0  0  0  0  0  0  0  0  0  0  0  0
    0.0001   -0.0000    0.0000 C   0  0  0  0  0  0  0  0  0  0  0  0
   -1.3857    0.8000    0.0000 C   0  0  0  0  0  0  0  0  0  0  0  0
   -1.3857    2.4000    0.0000 H   0  0  0  0  0  0  0  0  0  0  0  0
   -2.7713   -0.0000    0.0000 C   0  0  0  0  0  0  0  0  0  0  0  0
   -4.1569    0.8000    0.0000 N   0  0  0  0  0  0  0  0  0  0  0  0
   -5.5426   -0.0000    0.0000 O   0  0  0  0  0  0  0  0  0  0  0  0
   -4.1569    2.4000    0.0000 O   0  0  0  0  0  0  0  0  0  0  0  0
   -2.7713   -1.6000    0.0000 C   0  0  0  0  0  0  0  0  0  0  0  0
   -4.1569   -2.4000    0.0000 H   0  0  0  0  0  0  0  0  0  0  0  0
   -1.3857   -2.4000    0.0000 C   0  0  0  0  0  0  0  0  0  0  0  0
   -1.3857   -4.0000    0.0000 H   0  0  0  0  0  0  0  0  0  0  0  0
    0.0001   -1.6000    0.0000 C   0  0  0  0  0  0  0  0  0  0  0  0
    1.3857   -2.4000    0.0000 H   0  0  0  0  0  0  0  0  0  0  0  0
    2.7713   -0.0000    0.0000 O   0  0  0  0  0  0  0  0  0  0  0  0
    4.1569    0.8000    0.0000 H   0  0  0  0  0  0  0  0  0  0  0  0
    1.3857    2.4000    0.0000 O   0  0  0  0  0  0  0  0  0  0  0  0
  1  2  1  0  0  0  0
  2  3  4  0  0  0  0
  3  4  1  0  0  0  0
  3  5  4  0  0  0  0
  5  6  1  0  0  0  0
  6  7  1  0  0  0  0
  6  8  2  0  0  0  0
  5  9  4  0  0  0  0
  9 10  1  0  0  0  0
  9 11  4  0  0  0  0
 11 12  1  0  0  0  0
 11 13  4  0  0  0  0
 13  2  4  0  0  0  0
 13 14  1  0  0  0  0
  1 15  1  0  0  0  0
 15 16  1  0  0  0  0
  1 17  2  0  0  0  0
M  CHG  2   6   1   7  -1
M  END
> <CAS>
121-92-6

> <NAME>
M-NITROBENZOIC ACID

> <preferred_name>
3-Nitrobenzoic acid

> <iupac>
3-nitrobenzoic acid

> <SMILES>
[O-][N+](=O)c1cc(ccc1)C(O)=O

> <Canonical_QSARr>
[O-][N+](=O)c1cc(ccc1)C(O)=O

> <InChI_Code_QSARr>
InChI=1S/C7H5NO4/c9-7(10)5-2-1-3-6(4-5)8(11)12/h1-4H,(H,9,10)

> <InChI Key_QSARr>
AFPHTEQTJZKQAQ-UHFFFAOYSA-N

> <Salt_Solvent>
?

> <WS Temperature>
25

> <WS Reference>
YALKOWSKY,SH & HE,Y (2003)

> <dsstox_substance_id>
DTXSID0025737

> <LogMolar>
-1.6691

$$$$
122-14-5
  -INDIGO-01081615412D

 29 29  0  0  0  0  0  0  0  0999 V2000
   -4.7426   -1.3857    0.0000 S   0  0  0  0  0  0  0  0  0  0  0  0
   -5.5426   -0.0000    0.0000 P   0  0  0  0  0  0  0  0  0  0  0  0
   -6.9283   -0.8000    0.0000 O   0  0  0  0  0  0  0  0  0  0  0  0
   -8.3138   -0.0000    0.0000 C   0  0  0  0  0  0  0  0  0  0  0  0
   -9.6995    0.8001    0.0000 H   0  0  0  0  0  0  0  0  0  0  0  0
   -9.6995   -0.8000    0.0000 H   0  0  0  0  0  0  0  0  0  0  0  0
   -8.3138    1.6000    0.0000 H   0  0  0  0  0  0  0  0  0  0  0  0
   -6.3425    1.3857    0.0000 O   0  0  0  0  0  0  0  0  0  0  0  0
   -5.5426    2.7712    0.0000 C   0  0  0  0  0  0  0  0  0  0  0  0
   -6.3425    4.1569    0.0000 H   0  0  0  0  0  0  0  0  0  0  0  0
   -4.7426    4.1569    0.0000 H   0  0  0  0  0  0  0  0  0  0  0  0
   -3.9426    2.7712    0.0000 H   0  0  0  0  0  0  0  0  0  0  0  0
   -4.1569    0.8001    0.0000 O   0  0  0  0  0  0  0  0  0  0  0  0
   -2.7713   -0.0000    0.0000 C   0  0  0  0  0  0  0  0  0  0  0  0
   -2.7713   -1.6000    0.0000 C   0  0  0  0  0  0  0  0  0  0  0  0
   -4.1569   -2.4000    0.0000 H   0  0  0  0  0  0  0  0  0  0  0  0
   -1.3856   -2.4000    0.0000 C   0  0  0  0  0  0  0  0  0  0  0  0
   -1.3856   -4.0000    0.0000 H   0  0  0  0  0  0  0  0  0  0  0  0
    0.0001   -1.6000    0.0000 C   0  0  0  0  0  0  0  0  0  0  0  0
    1.3856   -2.4000    0.0000 N   0  0  0  0  0  0  0  0  0  0  0  0
    1.3856   -4.0000    0.0000 O   0  0  0  0  0  0  0  0  0  0  0  0
    2.7713   -1.6000    0.0000 O   0  0  0  0  0  0  0  0  0  0  0  0
    0.0001   -0.0000    0.0000 C   0  0  0  0  0  0  0  0  0  0  0  0
    1.3856    0.8001    0.0000 C   0  0  0  0  0  0  0  0  0  0  0  0
    2.7713    1.6000    0.0000 H   0  0  0  0  0  0  0  0  0  0  0  0
    1.3856    2.4000    0.0000 H   0  0  0  0  0  0  0  0  0  0  0  0
    2.7713   -0.0000    0.0000 H   0  0  0  0  0  0  0  0  0  0  0  0
   -1.3856    0.8001    0.0000 C   0  0  0  0  0  0  0  0  0  0  0  0
   -1.3856    2.4000    0.0000 H   0  0  0  0  0  0  0  0  0  0  0  0
  1  2  2  0  0  0  0
  2  3  1  0  0  0  0
  3  4  1  0  0  0  0
  4  5  1  0  0  0  0
  4  6  1  0  0  0  0
  4  7  1  0  0  0  0
  2  8  1  0  0  0  0
  8  9  1  0  0  0  0
  9 10  1  0  0  0  0
  9 11  1  0  0  0  0
  9 12  1  0  0  0  0
  2 13  1  0  0  0  0
 13 14  1  0  0  0  0
 14 15  4  0  0  0  0
 15 16  1  0  0  0  0
 15 17  4  0  0  0  0
 17 18  1  0  0  0  0
 17 19  4  0  0  0  0
 19 20  1  0  0  0  0
 20 21  1  0  0  0  0
 20 22  2  0  0  0  0
 19 23  4  0  0  0  0
 23 24  1  0  0  0  0
 24 25  1  0  0  0  0
 24 26  1  0  0  0  0
 24 27  1  0  0  0  0
 23 28  4  0  0  0  0
 28 14  4  0  0  0  0
 28 29  1  0  0  0  0
M  CHG  2  20   1  21  -1
M  END
> <CAS>
122-14-5

> <NAME>
FENITROTHION

> <preferred_name>
Fenitrothion

> <iupac>
O,O-dimethyl O-(3-methyl-4-nitrophenyl) phosphorothioate

> <SMILES>
Cc1cc(ccc1[N+]([O-])=O)OP(=S)(OC)OC

> <Canonical_QSARr>
Cc1cc(ccc1[N+]([O-])=O)OP(=S)(OC)OC

> <InChI_Code_QSARr>
InChI=1S/C9H12NO5PS/c1-7-6-8(4-5-9(7)10(11)12)15-16(17,13-2)14-3/h4-6H,1-3H3

> <InChI Key_QSARr>
ZNOLGFHPUIJIMJ-UHFFFAOYSA-N

> <Salt_Solvent>
?

> <WS Temperature>
25

> <WS Reference>
SHIU,WY ET AL. (1990)

> <dsstox_substance_id>
DTXSID4032613

> <LogMolar>
-3.8631

$$$$
122-39-4
  -INDIGO-01081615412D

 24 25  0  0  0  0  0  0  0  0999 V2000
    1.3857    0.8001    0.0000 C   0  0  0  0  0  0  0  0  0  0  0  0
    0.0000    0.0000    0.0000 C   0  0  0  0  0  0  0  0  0  0  0  0
   -1.3857    0.8001    0.0000 N   0  0  0  0  0  0  0  0  0  0  0  0
   -2.9857    0.8001    0.0000 C   0  0  0  0  0  0  0  0  0  0  0  0
   -3.7857    2.1856    0.0000 C   0  0  0  0  0  0  0  0  0  0  0  0
   -2.9857    3.5713    0.0000 H   0  0  0  0  0  0  0  0  0  0  0  0
   -5.3856    2.1856    0.0000 C   0  0  0  0  0  0  0  0  0  0  0  0
   -6.1856    3.5713    0.0000 H   0  0  0  0  0  0  0  0  0  0  0  0
   -6.1856    0.8001    0.0000 C   0  0  0  0  0  0  0  0  0  0  0  0
   -7.7856    0.8001    0.0000 H   0  0  0  0  0  0  0  0  0  0  0  0
   -5.3856   -0.5856    0.0000 C   0  0  0  0  0  0  0  0  0  0  0  0
   -6.1856   -1.9713    0.0000 H   0  0  0  0  0  0  0  0  0  0  0  0
   -3.7857   -0.5856    0.0000 C   0  0  0  0  0  0  0  0  0  0  0  0
   -2.9857   -1.9713    0.0000 H   0  0  0  0  0  0  0  0  0  0  0  0
   -0.8384    2.3035    0.0000 H   0  0  0  0  0  0  0  0  0  0  0  0
    0.0000   -1.6000    0.0000 C   0  0  0  0  0  0  0  0  0  0  0  0
   -1.3857   -2.4000    0.0000 H   0  0  0  0  0  0  0  0  0  0  0  0
    1.3857   -2.4000    0.0000 C   0  0  0  0  0  0  0  0  0  0  0  0
    1.3857   -4.0000    0.0000 H   0  0  0  0  0  0  0  0  0  0  0  0
    2.7712   -1.6000    0.0000 C   0  0  0  0  0  0  0  0  0  0  0  0
    4.1569   -2.4000    0.0000 H   0  0  0  0  0  0  0  0  0  0  0  0
    2.7712    0.0000    0.0000 C   0  0  0  0  0  0  0  0  0  0  0  0
    4.1569    0.8001    0.0000 H   0  0  0  0  0  0  0  0  0  0  0  0
    1.3857    2.4000    0.0000 H   0  0  0  0  0  0  0  0  0  0  0  0
  1  2  4  0  0  0  0
  2  3  1  0  0  0  0
  3  4  1  0  0  0  0
  4  5  4  0  0  0  0
  5  6  1  0  0  0  0
  5  7  4  0  0  0  0
  7  8  1  0  0  0  0
  7  9  4  0  0  0  0
  9 10  1  0  0  0  0
  9 11  4  0  0  0  0
 11 12  1  0  0  0  0
 11 13  4  0  0  0  0
 13  4  4  0  0  0  0
 13 14  1  0  0  0  0
  3 15  1  0  0  0  0
  2 16  4  0  0  0  0
 16 17  1  0  0  0  0
 16 18  4  0  0  0  0
 18 19  1  0  0  0  0
 18 20  4  0  0  0  0
 20 21  1  0  0  0  0
 20 22  4  0  0  0  0
 22  1  4  0  0  0  0
 22 23  1  0  0  0  0
  1 24  1  0  0  0  0
M  END
> <CAS>
122-39-4

> <NAME>
DIPHENYLAMINE

> <preferred_name>
Diphenylamine

> <iupac>
N-phenylaniline

> <SMILES>
c1ccccc1Nc1ccccc1

> <Canonical_QSARr>
c1ccccc1Nc1ccccc1

> <InChI_Code_QSARr>
InChI=1S/C12H11N/c1-3-7-11(8-4-1)13-12-9-5-2-6-10-12/h1-10,13H

> <InChI Key_QSARr>
DMBHHRLKUKUOEG-UHFFFAOYSA-N

> <Salt_Solvent>
?

> <WS Temperature>
20

> <WS Reference>
YALKOWSKY,SH & HE,Y (2003)

> <dsstox_substance_id>
DTXSID4021975

> <LogMolar>
-3.5042

$$$$
122-66-7
  -INDIGO-01081615412D

 26 27  0  0  0  0  0  0  0  0999 V2000
    1.6000    0.0000    0.0000 N   0  0  0  0  0  0  0  0  0  0  0  0
    2.4000   -1.3856    0.0000 N   0  0  0  0  0  0  0  0  0  0  0  0
    4.0000   -1.3856    0.0000 C   0  0  0  0  0  0  0  0  0  0  0  0
    4.8000   -2.7713    0.0000 C   0  0  0  0  0  0  0  0  0  0  0  0
    4.0000   -4.1569    0.0000 H   0  0  0  0  0  0  0  0  0  0  0  0
    6.4000   -2.7713    0.0000 C   0  0  0  0  0  0  0  0  0  0  0  0
    7.2000   -4.1569    0.0000 H   0  0  0  0  0  0  0  0  0  0  0  0
    7.2000   -1.3856    0.0000 C   0  0  0  0  0  0  0  0  0  0  0  0
    8.8000   -1.3856    0.0000 H   0  0  0  0  0  0  0  0  0  0  0  0
    6.4000    0.0000    0.0000 C   0  0  0  0  0  0  0  0  0  0  0  0
    7.2000    1.3856    0.0000 H   0  0  0  0  0  0  0  0  0  0  0  0
    4.8000    0.0000    0.0000 C   0  0  0  0  0  0  0  0  0  0  0  0
    4.0000    1.3856    0.0000 H   0  0  0  0  0  0  0  0  0  0  0  0
    1.6000   -2.7713    0.0000 H   0  0  0  0  0  0  0  0  0  0  0  0
    0.0000    0.0000    0.0000 C   0  0  0  0  0  0  0  0  0  0  0  0
   -0.8000    1.3856    0.0000 C   0  0  0  0  0  0  0  0  0  0  0  0
    0.0000    2.7713    0.0000 H   0  0  0  0  0  0  0  0  0  0  0  0
   -2.4000    1.3856    0.0000 C   0  0  0  0  0  0  0  0  0  0  0  0
   -3.2000    2.7713    0.0000 H   0  0  0  0  0  0  0  0  0  0  0  0
   -3.2000    0.0000    0.0000 C   0  0  0  0  0  0  0  0  0  0  0  0
   -4.8000    0.0000    0.0000 H   0  0  0  0  0  0  0  0  0  0  0  0
   -2.4000   -1.3856    0.0000 C   0  0  0  0  0  0  0  0  0  0  0  0
   -3.2000   -2.7713    0.0000 H   0  0  0  0  0  0  0  0  0  0  0  0
   -0.8000   -1.3856    0.0000 C   0  0  0  0  0  0  0  0  0  0  0  0
    0.0000   -2.7713    0.0000 H   0  0  0  0  0  0  0  0  0  0  0  0
    2.4000    1.3856    0.0000 H   0  0  0  0  0  0  0  0  0  0  0  0
  1  2  1  0  0  0  0
  2  3  1  0  0  0  0
  3  4  4  0  0  0  0
  4  5  1  0  0  0  0
  4  6  4  0  0  0  0
  6  7  1  0  0  0  0
  6  8  4  0  0  0  0
  8  9  1  0  0  0  0
  8 10  4  0  0  0  0
 10 11  1  0  0  0  0
 10 12  4  0  0  0  0
 12  3  4  0  0  0  0
 12 13  1  0  0  0  0
  2 14  1  0  0  0  0
  1 15  1  0  0  0  0
 15 16  4  0  0  0  0
 16 17  1  0  0  0  0
 16 18  4  0  0  0  0
 18 19  1  0  0  0  0
 18 20  4  0  0  0  0
 20 21  1  0  0  0  0
 20 22  4  0  0  0  0
 22 23  1  0  0  0  0
 22 24  4  0  0  0  0
 24 15  4  0  0  0  0
 24 25  1  0  0  0  0
  1 26  1  0  0  0  0
M  END
> <CAS>
122-66-7

> <NAME>
HYDRAZOBENZENE

> <preferred_name>
1,2-Diphenylhydrazine

> <iupac>
1,2-diphenylhydrazine

> <SMILES>
c1ccccc1NNc1ccccc1

> <Canonical_QSARr>
c1ccccc1NNc1ccccc1

> <InChI_Code_QSARr>
InChI=1S/C12H12N2/c1-3-7-11(8-4-1)13-14-12-9-5-2-6-10-12/h1-10,13-14H

> <InChI Key_QSARr>
YBQZXXMEJHZYMB-UHFFFAOYSA-N

> <Salt_Solvent>
?

> <WS Temperature>
25

> <WS Reference>
KUHNE,R ET AL. (1995)

> <dsstox_substance_id>
DTXSID7020710

> <LogMolar>
-2.921

$$$$
122-98-5
  -INDIGO-01081615412D

 21 21  0  0  0  0  0  0  0  0999 V2000
   -2.7712   -0.0000    0.0000 C   0  0  0  0  0  0  0  0  0  0  0  0
   -1.3857    0.8000    0.0000 N   0  0  0  0  0  0  0  0  0  0  0  0
   -0.0001   -0.0000    0.0000 C   0  0  0  0  0  0  0  0  0  0  0  0
    1.3856   -0.8000    0.0000 C   0  0  0  0  0  0  0  0  0  0  0  0
    2.7713   -1.6000    0.0000 O   0  0  0  0  0  0  0  0  0  0  0  0
    4.1569   -0.8000    0.0000 H   0  0  0  0  0  0  0  0  0  0  0  0
    2.1857    0.5856    0.0000 H   0  0  0  0  0  0  0  0  0  0  0  0
    0.5857   -2.1856    0.0000 H   0  0  0  0  0  0  0  0  0  0  0  0
    0.8000    1.3856    0.0000 H   0  0  0  0  0  0  0  0  0  0  0  0
   -0.8000   -1.3856    0.0000 H   0  0  0  0  0  0  0  0  0  0  0  0
   -1.3857    2.4000    0.0000 H   0  0  0  0  0  0  0  0  0  0  0  0
   -4.1569    0.8000    0.0000 C   0  0  0  0  0  0  0  0  0  0  0  0
   -4.1569    2.4000    0.0000 H   0  0  0  0  0  0  0  0  0  0  0  0
   -5.5425   -0.0000    0.0000 C   0  0  0  0  0  0  0  0  0  0  0  0
   -6.9282    0.8000    0.0000 H   0  0  0  0  0  0  0  0  0  0  0  0
   -5.5425   -1.6000    0.0000 C   0  0  0  0  0  0  0  0  0  0  0  0
   -6.9282   -2.4000    0.0000 H   0  0  0  0  0  0  0  0  0  0  0  0
   -4.1569   -2.4000    0.0000 C   0  0  0  0  0  0  0  0  0  0  0  0
   -4.1569   -4.0000    0.0000 H   0  0  0  0  0  0  0  0  0  0  0  0
   -2.7712   -1.6000    0.0000 C   0  0  0  0  0  0  0  0  0  0  0  0
   -1.3857   -2.4000    0.0000 H   0  0  0  0  0  0  0  0  0  0  0  0
  1  2  1  0  0  0  0
  2  3  1  0  0  0  0
  3  4  1  0  0  0  0
  4  5  1  0  0  0  0
  5  6  1  0  0  0  0
  4  7  1  0  0  0  0
  4  8  1  0  0  0  0
  3  9  1  0  0  0  0
  3 10  1  0  0  0  0
  2 11  1  0  0  0  0
  1 12  4  0  0  0  0
 12 13  1  0  0  0  0
 12 14  4  0  0  0  0
 14 15  1  0  0  0  0
 14 16  4  0  0  0  0
 16 17  1  0  0  0  0
 16 18  4  0  0  0  0
 18 19  1  0  0  0  0
 18 20  4  0  0  0  0
 20  1  4  0  0  0  0
 20 21  1  0  0  0  0
M  END
> <CAS>
122-98-5

> <NAME>
2-ANILINOETHANOL

> <preferred_name>
Ethanol, 2-(phenylamino)-

> <iupac>
2-(Phenylamino)ethanol

> <SMILES>
OCCNc1ccccc1

> <Canonical_QSARr>
OCCNc1ccccc1

> <InChI_Code_QSARr>
InChI=1S/C8H11NO/c10-7-6-9-8-4-2-1-3-5-8/h1-5,9-10H,6-7H2

> <InChI Key_QSARr>
MWGATWIBSKHFMR-UHFFFAOYSA-N

> <Salt_Solvent>
?

> <WS Temperature>
25

> <WS Reference>
KIRK-OTHMER; 4th ed, 2:3 (1992)

> <dsstox_substance_id>
DTXSID8059550

> <LogMolar>
-0.4745

$$$$
123-07-9
  -INDIGO-01081615412D

 19 19  0  0  0  0  0  0  0  0999 V2000
    4.8000    0.0000    0.0000 O   0  0  0  0  0  0  0  0  0  0  0  0
    3.2001   -0.0000    0.0000 C   0  0  0  0  0  0  0  0  0  0  0  0
    2.3999    1.3856    0.0000 C   0  0  0  0  0  0  0  0  0  0  0  0
    3.2001    2.7713    0.0000 H   0  0  0  0  0  0  0  0  0  0  0  0
    0.8000    1.3856    0.0000 C   0  0  0  0  0  0  0  0  0  0  0  0
    0.0000    2.7713    0.0000 H   0  0  0  0  0  0  0  0  0  0  0  0
    0.0000   -0.0000    0.0000 C   0  0  0  0  0  0  0  0  0  0  0  0
   -1.5999   -0.0000    0.0000 C   0  0  0  0  0  0  0  0  0  0  0  0
   -3.2000   -0.0000    0.0000 C   0  0  0  0  0  0  0  0  0  0  0  0
   -4.8000   -0.0000    0.0000 H   0  0  0  0  0  0  0  0  0  0  0  0
   -4.0000    1.3856    0.0000 H   0  0  0  0  0  0  0  0  0  0  0  0
   -4.0000   -1.3856    0.0000 H   0  0  0  0  0  0  0  0  0  0  0  0
   -1.5999    1.6000    0.0000 H   0  0  0  0  0  0  0  0  0  0  0  0
   -1.5999   -1.6000    0.0000 H   0  0  0  0  0  0  0  0  0  0  0  0
    0.8000   -1.3856    0.0000 C   0  0  0  0  0  0  0  0  0  0  0  0
    0.0000   -2.7713    0.0000 H   0  0  0  0  0  0  0  0  0  0  0  0
    2.3999   -1.3856    0.0000 C   0  0  0  0  0  0  0  0  0  0  0  0
    3.2001   -2.7713    0.0000 H   0  0  0  0  0  0  0  0  0  0  0  0
    5.6000   -1.3856    0.0000 H   0  0  0  0  0  0  0  0  0  0  0  0
  1  2  1  0  0  0  0
  2  3  4  0  0  0  0
  3  4  1  0  0  0  0
  3  5  4  0  0  0  0
  5  6  1  0  0  0  0
  5  7  4  0  0  0  0
  7  8  1  0  0  0  0
  8  9  1  0  0  0  0
  9 10  1  0  0  0  0
  9 11  1  0  0  0  0
  9 12  1  0  0  0  0
  8 13  1  0  0  0  0
  8 14  1  0  0  0  0
  7 15  4  0  0  0  0
 15 16  1  0  0  0  0
 15 17  4  0  0  0  0
 17  2  4  0  0  0  0
 17 18  1  0  0  0  0
  1 19  1  0  0  0  0
M  END
> <CAS>
123-07-9

> <NAME>
P-ETHYLPHENOL

> <preferred_name>
4-Ethylphenol

> <iupac>
4-ethylphenol

> <SMILES>
CCc1ccc(O)cc1

> <Canonical_QSARr>
CCc1ccc(O)cc1

> <InChI_Code_QSARr>
InChI=1S/C8H10O/c1-2-7-3-5-8(9)6-4-7/h3-6,9H,2H2,1H3

> <InChI Key_QSARr>
HXDOZKJGKXYMEW-UHFFFAOYSA-N

> <Salt_Solvent>
?

> <WS Temperature>
25

> <WS Reference>
YALKOWSKY,SH & DANNENFELSER,RM (1992)

> <dsstox_substance_id>
DTXSID4021977

> <LogMolar>
-1.4752

$$$$
123-19-3
  -INDIGO-01081615412D

 22 21  0  0  0  0  0  0  0  0999 V2000
    2.7713   -1.6000    0.0000 C   0  0  0  0  0  0  0  0  0  0  0  0
    1.3856   -0.8000    0.0000 C   0  0  0  0  0  0  0  0  0  0  0  0
   -0.0001    0.0000    0.0000 C   0  0  0  0  0  0  0  0  0  0  0  0
   -1.3857    0.8000    0.0000 C   0  0  0  0  0  0  0  0  0  0  0  0
   -1.3857    2.4000    0.0000 O   0  0  0  0  0  0  0  0  0  0  0  0
   -2.7712    0.0000    0.0000 C   0  0  0  0  0  0  0  0  0  0  0  0
   -4.1569   -0.8000    0.0000 C   0  0  0  0  0  0  0  0  0  0  0  0
   -5.5425   -1.6000    0.0000 C   0  0  0  0  0  0  0  0  0  0  0  0
   -6.9282   -2.4000    0.0000 H   0  0  0  0  0  0  0  0  0  0  0  0
   -6.9282   -0.8000    0.0000 H   0  0  0  0  0  0  0  0  0  0  0  0
   -5.5425   -3.2000    0.0000 H   0  0  0  0  0  0  0  0  0  0  0  0
   -4.9570    0.5856    0.0000 H   0  0  0  0  0  0  0  0  0  0  0  0
   -3.3570   -2.1856    0.0000 H   0  0  0  0  0  0  0  0  0  0  0  0
   -3.5713    1.3856    0.0000 H   0  0  0  0  0  0  0  0  0  0  0  0
   -1.9713   -1.3856    0.0000 H   0  0  0  0  0  0  0  0  0  0  0  0
    0.8000    1.3856    0.0000 H   0  0  0  0  0  0  0  0  0  0  0  0
   -0.8000   -1.3856    0.0000 H   0  0  0  0  0  0  0  0  0  0  0  0
    0.5857   -2.1856    0.0000 H   0  0  0  0  0  0  0  0  0  0  0  0
    2.1857    0.5856    0.0000 H   0  0  0  0  0  0  0  0  0  0  0  0
    4.1569   -2.4000    0.0000 H   0  0  0  0  0  0  0  0  0  0  0  0
    4.1569   -0.8000    0.0000 H   0  0  0  0  0  0  0  0  0  0  0  0
    2.7713   -3.2000    0.0000 H   0  0  0  0  0  0  0  0  0  0  0  0
  1  2  1  0  0  0  0
  2  3  1  0  0  0  0
  3  4  1  0  0  0  0
  4  5  2  0  0  0  0
  4  6  1  0  0  0  0
  6  7  1  0  0  0  0
  7  8  1  0  0  0  0
  8  9  1  0  0  0  0
  8 10  1  0  0  0  0
  8 11  1  0  0  0  0
  7 12  1  0  0  0  0
  7 13  1  0  0  0  0
  6 14  1  0  0  0  0
  6 15  1  0  0  0  0
  3 16  1  0  0  0  0
  3 17  1  0  0  0  0
  2 18  1  0  0  0  0
  2 19  1  0  0  0  0
  1 20  1  0  0  0  0
  1 21  1  0  0  0  0
  1 22  1  0  0  0  0
M  END
> <CAS>
123-19-3

> <NAME>
DI(N-PROPYL) KETONE

> <preferred_name>
4-Heptanone

> <iupac>
heptan-4-one

> <SMILES>
CCCC(=O)CCC

> <Canonical_QSARr>
CCCC(=O)CCC

> <InChI_Code_QSARr>
InChI=1S/C7H14O/c1-3-5-7(8)6-4-2/h3-6H2,1-2H3

> <InChI Key_QSARr>
HCFAJYNVAYBARA-UHFFFAOYSA-N

> <Salt_Solvent>
?

> <WS Temperature>
25

> <WS Reference>
YALKOWSKY,SH & DANNENFELSER,RM (1992)

> <dsstox_substance_id>
DTXSID6047650

> <LogMolar>
-1.5525

$$$$
123-30-8
  -INDIGO-01081615412D

 15 15  0  0  0  0  0  0  0  0999 V2000
    4.7999    0.0000    0.0000 O   0  0  0  0  0  0  0  0  0  0  0  0
    3.1999   -0.0000    0.0000 C   0  0  0  0  0  0  0  0  0  0  0  0
    2.4000    1.3856    0.0000 C   0  0  0  0  0  0  0  0  0  0  0  0
    3.1999    2.7713    0.0000 H   0  0  0  0  0  0  0  0  0  0  0  0
    0.8000    1.3856    0.0000 C   0  0  0  0  0  0  0  0  0  0  0  0
   -0.0001    2.7713    0.0000 H   0  0  0  0  0  0  0  0  0  0  0  0
   -0.0001   -0.0000    0.0000 C   0  0  0  0  0  0  0  0  0  0  0  0
   -1.5999   -0.0000    0.0000 N   0  0  0  0  0  0  0  0  0  0  0  0
   -2.4000    1.3856    0.0000 H   0  0  0  0  0  0  0  0  0  0  0  0
   -2.4000   -1.3856    0.0000 H   0  0  0  0  0  0  0  0  0  0  0  0
    0.8000   -1.3856    0.0000 C   0  0  0  0  0  0  0  0  0  0  0  0
    0.0001   -2.7713    0.0000 H   0  0  0  0  0  0  0  0  0  0  0  0
    2.4000   -1.3856    0.0000 C   0  0  0  0  0  0  0  0  0  0  0  0
    3.2001   -2.7713    0.0000 H   0  0  0  0  0  0  0  0  0  0  0  0
    5.6000   -1.3856    0.0000 H   0  0  0  0  0  0  0  0  0  0  0  0
  1  2  1  0  0  0  0
  2  3  4  0  0  0  0
  3  4  1  0  0  0  0
  3  5  4  0  0  0  0
  5  6  1  0  0  0  0
  5  7  4  0  0  0  0
  7  8  1  0  0  0  0
  8  9  1  0  0  0  0
  8 10  1  0  0  0  0
  7 11  4  0  0  0  0
 11 12  1  0  0  0  0
 11 13  4  0  0  0  0
 13  2  4  0  0  0  0
 13 14  1  0  0  0  0
  1 15  1  0  0  0  0
M  END
> <CAS>
123-30-8

> <NAME>
PHENOL, 4-AMINO-

> <preferred_name>
4-Aminophenol

> <iupac>
4-aminophenol

> <SMILES>
Nc1ccc(O)cc1

> <Canonical_QSARr>
Nc1ccc(O)cc1

> <InChI_Code_QSARr>
InChI=1S/C6H7NO/c7-5-1-3-6(8)4-2-5/h1-4,8H,7H2

> <InChI Key_QSARr>
PLIKAWJENQZMHA-UHFFFAOYSA-N

> <Salt_Solvent>
?

> <WS Temperature>
20

> <WS Reference>
YALKOWSKY,SH & DANNENFELSER,RM (1992)

> <dsstox_substance_id>
DTXSID3024499

> <LogMolar>
-0.8338

$$$$
123-38-6
  -INDIGO-01081615412D

 10  9  0  0  0  0  0  0  0  0999 V2000
    1.6000    0.0000    0.0000 C   0  0  0  0  0  0  0  0  0  0  0  0
   -0.0000    0.0000    0.0000 C   0  0  0  0  0  0  0  0  0  0  0  0
   -1.6000   -0.0000    0.0000 C   0  0  0  0  0  0  0  0  0  0  0  0
   -2.4000   -1.3856    0.0000 O   0  0  0  0  0  0  0  0  0  0  0  0
   -2.4000    1.3856    0.0000 H   0  0  0  0  0  0  0  0  0  0  0  0
   -0.0000    1.6000    0.0000 H   0  0  0  0  0  0  0  0  0  0  0  0
   -0.0000   -1.6000    0.0000 H   0  0  0  0  0  0  0  0  0  0  0  0
    3.2000    0.0000    0.0000 H   0  0  0  0  0  0  0  0  0  0  0  0
    2.4000   -1.3856    0.0000 H   0  0  0  0  0  0  0  0  0  0  0  0
    2.4000    1.3856    0.0000 H   0  0  0  0  0  0  0  0  0  0  0  0
  1  2  1  0  0  0  0
  2  3  1  0  0  0  0
  3  4  2  0  0  0  0
  3  5  1  0  0  0  0
  2  6  1  0  0  0  0
  2  7  1  0  0  0  0
  1  8  1  0  0  0  0
  1  9  1  0  0  0  0
  1 10  1  0  0  0  0
M  END
> <CAS>
123-38-6

> <NAME>
PROPIONALDEHYDE

> <preferred_name>
Propanal

> <iupac>
propanal

> <SMILES>
CCC=O

> <Canonical_QSARr>
CCC=O

> <InChI_Code_QSARr>
InChI=1S/C3H6O/c1-2-3-4/h3H,2H2,1H3

> <InChI Key_QSARr>
NBBJYMSMWIIQGU-UHFFFAOYSA-N

> <Salt_Solvent>
?

> <WS Temperature>
25

> <WS Reference>
RIDDICK,JA ET AL. (1986)

> <dsstox_substance_id>
DTXSID2021658

> <LogMolar>
0.7217

$$$$
123-56-8
  -INDIGO-01081615412D

 12 12  0  0  0  0  0  0  0  0999 V2000
   -2.0944    1.5217    0.0000 N   0  0  0  0  0  0  0  0  0  0  0  0
   -2.5888   -0.0000    0.0000 C   0  0  0  0  0  0  0  0  0  0  0  0
   -4.1105   -0.4945    0.0000 O   0  0  0  0  0  0  0  0  0  0  0  0
   -1.2945   -0.9405    0.0000 C   0  0  0  0  0  0  0  0  0  0  0  0
   -2.3650   -2.1295    0.0000 H   0  0  0  0  0  0  0  0  0  0  0  0
   -0.2238   -2.1295    0.0000 H   0  0  0  0  0  0  0  0  0  0  0  0
   -0.0000   -0.0000    0.0000 C   0  0  0  0  0  0  0  0  0  0  0  0
    0.8000   -1.3856    0.0000 H   0  0  0  0  0  0  0  0  0  0  0  0
    1.4617    0.6508    0.0000 H   0  0  0  0  0  0  0  0  0  0  0  0
   -0.4944    1.5217    0.0000 C   0  0  0  0  0  0  0  0  0  0  0  0
    0.4460    2.8161    0.0000 O   0  0  0  0  0  0  0  0  0  0  0  0
   -3.0349    2.8161    0.0000 H   0  0  0  0  0  0  0  0  0  0  0  0
  1  2  1  0  0  0  0
  2  3  2  0  0  0  0
  2  4  1  0  0  0  0
  4  5  1  0  0  0  0
  4  6  1  0  0  0  0
  4  7  1  0  0  0  0
  7  8  1  0  0  0  0
  7  9  1  0  0  0  0
  7 10  1  0  0  0  0
 10  1  1  0  0  0  0
 10 11  2  0  0  0  0
  1 12  1  0  0  0  0
M  END
> <CAS>
123-56-8

> <NAME>
SUCCINIMIDE

> <preferred_name>
Succinimide

> <iupac>
pyrrolidine-2,5-dione

> <SMILES>
O=C1CCC(=O)N1

> <Canonical_QSARr>
O=C1CCC(=O)N1

> <InChI_Code_QSARr>
InChI=1S/C4H5NO2/c6-3-1-2-4(7)5-3/h1-2H2,(H,5,6,7)

> <InChI Key_QSARr>
KZNICNPSHKQLFF-UHFFFAOYSA-N

> <Salt_Solvent>
?

> <WS Temperature>
21

> <WS Reference>
YALKOWSKY,SH & DANNENFELSER,RM (1992)

> <dsstox_substance_id>
DTXSID8051629

> <LogMolar>
0.2962

$$$$
123-86-4
  -INDIGO-01081615412D

 20 19  0  0  0  0  0  0  0  0999 V2000
   -5.6000   -1.3856    0.0000 C   0  0  0  0  0  0  0  0  0  0  0  0
   -4.0000   -1.3856    0.0000 C   0  0  0  0  0  0  0  0  0  0  0  0
   -3.2000    0.0000    0.0000 O   0  0  0  0  0  0  0  0  0  0  0  0
   -1.6000    0.0000    0.0000 C   0  0  0  0  0  0  0  0  0  0  0  0
    0.0000    0.0000    0.0000 C   0  0  0  0  0  0  0  0  0  0  0  0
    1.6000    0.0000    0.0000 C   0  0  0  0  0  0  0  0  0  0  0  0
    3.2000    0.0000    0.0000 C   0  0  0  0  0  0  0  0  0  0  0  0
    4.8000    0.0000    0.0000 H   0  0  0  0  0  0  0  0  0  0  0  0
    4.0000   -1.3856    0.0000 H   0  0  0  0  0  0  0  0  0  0  0  0
    4.0000    1.3856    0.0000 H   0  0  0  0  0  0  0  0  0  0  0  0
    1.6000   -1.6000    0.0000 H   0  0  0  0  0  0  0  0  0  0  0  0
    1.6000    1.6000    0.0000 H   0  0  0  0  0  0  0  0  0  0  0  0
    0.0000    1.6000    0.0000 H   0  0  0  0  0  0  0  0  0  0  0  0
    0.0000   -1.6000    0.0000 H   0  0  0  0  0  0  0  0  0  0  0  0
   -1.6000   -1.6000    0.0000 H   0  0  0  0  0  0  0  0  0  0  0  0
   -1.6000    1.6000    0.0000 H   0  0  0  0  0  0  0  0  0  0  0  0
   -3.2000   -2.7713    0.0000 O   0  0  0  0  0  0  0  0  0  0  0  0
   -7.2000   -1.3856    0.0000 H   0  0  0  0  0  0  0  0  0  0  0  0
   -6.4000   -2.7713    0.0000 H   0  0  0  0  0  0  0  0  0  0  0  0
   -6.4000    0.0000    0.0000 H   0  0  0  0  0  0  0  0  0  0  0  0
  1  2  1  0  0  0  0
  2  3  1  0  0  0  0
  3  4  1  0  0  0  0
  4  5  1  0  0  0  0
  5  6  1  0  0  0  0
  6  7  1  0  0  0  0
  7  8  1  0  0  0  0
  7  9  1  0  0  0  0
  7 10  1  0  0  0  0
  6 11  1  0  0  0  0
  6 12  1  0  0  0  0
  5 13  1  0  0  0  0
  5 14  1  0  0  0  0
  4 15  1  0  0  0  0
  4 16  1  0  0  0  0
  2 17  2  0  0  0  0
  1 18  1  0  0  0  0
  1 19  1  0  0  0  0
  1 20  1  0  0  0  0
M  END
> <CAS>
123-86-4

> <NAME>
N-BUTYL ACETATE

> <preferred_name>
Butyl acetate

> <iupac>
butyl acetate

> <SMILES>
CCCCOC(C)=O

> <Canonical_QSARr>
CCCCOC(C)=O

> <InChI_Code_QSARr>
InChI=1S/C6H12O2/c1-3-4-5-8-6(2)7/h3-5H2,1-2H3

> <InChI Key_QSARr>
DKPFZGUDAPQIHT-UHFFFAOYSA-N

> <Salt_Solvent>
?

> <WS Temperature>
25

> <WS Reference>
YALKOWSKY,SH & DANNENFELSER,RM (1992)

> <dsstox_substance_id>
DTXSID3021982

> <LogMolar>
-1.1408

$$$$
123-96-6, 4128-31-8, 6169-06-8
  -INDIGO-01081615412D

 27 26  0  0  0  0  0  0  0  0999 V2000
   -4.7999   -0.0000    0.0000 C   0  0  0  0  0  0  0  0  0  0  0  0
   -3.2001   -0.0000    0.0000 C   0  0  0  0  0  0  0  0  0  0  0  0
   -3.2001    1.6000    0.0000 O   0  0  0  0  0  0  0  0  0  0  0  0
   -4.5857    2.4000    0.0000 H   0  0  0  0  0  0  0  0  0  0  0  0
   -1.6000   -0.0000    0.0000 C   0  0  0  0  0  0  0  0  0  0  0  0
    0.0001   -0.0000    0.0000 C   0  0  0  0  0  0  0  0  0  0  0  0
    1.5999   -0.0000    0.0000 C   0  0  0  0  0  0  0  0  0  0  0  0
    3.2000   -0.0000    0.0000 C   0  0  0  0  0  0  0  0  0  0  0  0
    4.8001   -0.0000    0.0000 C   0  0  0  0  0  0  0  0  0  0  0  0
    6.3999   -0.0000    0.0000 C   0  0  0  0  0  0  0  0  0  0  0  0
    8.0000   -0.0000    0.0000 H   0  0  0  0  0  0  0  0  0  0  0  0
    7.2000   -1.3856    0.0000 H   0  0  0  0  0  0  0  0  0  0  0  0
    7.2000    1.3856    0.0000 H   0  0  0  0  0  0  0  0  0  0  0  0
    4.8001   -1.6000    0.0000 H   0  0  0  0  0  0  0  0  0  0  0  0
    4.8001    1.6000    0.0000 H   0  0  0  0  0  0  0  0  0  0  0  0
    3.2000   -1.6000    0.0000 H   0  0  0  0  0  0  0  0  0  0  0  0
    3.2000    1.6000    0.0000 H   0  0  0  0  0  0  0  0  0  0  0  0
    1.5999   -1.6000    0.0000 H   0  0  0  0  0  0  0  0  0  0  0  0
    1.5999    1.6000    0.0000 H   0  0  0  0  0  0  0  0  0  0  0  0
    0.0001    1.6000    0.0000 H   0  0  0  0  0  0  0  0  0  0  0  0
    0.0001   -1.6000    0.0000 H   0  0  0  0  0  0  0  0  0  0  0  0
   -1.6000   -1.6000    0.0000 H   0  0  0  0  0  0  0  0  0  0  0  0
   -1.6000    1.6000    0.0000 H   0  0  0  0  0  0  0  0  0  0  0  0
   -3.2001   -1.6000    0.0000 H   0  0  0  0  0  0  0  0  0  0  0  0
   -6.4000   -0.0000    0.0000 H   0  0  0  0  0  0  0  0  0  0  0  0
   -5.6000   -1.3856    0.0000 H   0  0  0  0  0  0  0  0  0  0  0  0
   -5.6000    1.3856    0.0000 H   0  0  0  0  0  0  0  0  0  0  0  0
  1  2  1  0  0  0  0
  2  3  1  0  0  0  0
  3  4  1  0  0  0  0
  2  5  1  0  0  0  0
  5  6  1  0  0  0  0
  6  7  1  0  0  0  0
  7  8  1  0  0  0  0
  8  9  1  0  0  0  0
  9 10  1  0  0  0  0
 10 11  1  0  0  0  0
 10 12  1  0  0  0  0
 10 13  1  0  0  0  0
  9 14  1  0  0  0  0
  9 15  1  0  0  0  0
  8 16  1  0  0  0  0
  8 17  1  0  0  0  0
  7 18  1  0  0  0  0
  7 19  1  0  0  0  0
  6 20  1  0  0  0  0
  6 21  1  0  0  0  0
  5 22  1  0  0  0  0
  5 23  1  0  0  0  0
  2 24  1  0  0  0  0
  1 25  1  0  0  0  0
  1 26  1  0  0  0  0
  1 27  1  0  0  0  0
M  END
> <CAS>
123-96-6, 4128-31-8, 6169-06-8

> <NAME>
2-OCTANOL, dl-2-Octanol, 2-Octanol

> <preferred_name>
2-Octanol

> <iupac>
octan-2-ol

> <SMILES>
CCCCCCC(C)O

> <Canonical_QSARr>
CCCCCCC(C)O

> <InChI_Code_QSARr>
InChI=1S/C8H18O/c1-3-4-5-6-7-8(2)9/h8-9H,3-7H2,1-2H3

> <InChI Key_QSARr>
SJWFXCIHNDVPSH-UHFFFAOYSA-N

> <Salt_Solvent>
?

> <WS Temperature>
25

> <WS Reference>
AMIDON,GL ET AL. (1974)

> <dsstox_substance_id>
DTXSID0027014

> <LogMolar>
-2.03616666666667

$$$$
124-07-2
  -INDIGO-01081615412D

 26 25  0  0  0  0  0  0  0  0999 V2000
   -4.8001   -0.0000    0.0000 C   0  0  0  0  0  0  0  0  0  0  0  0
   -3.2000   -0.0000    0.0000 C   0  0  0  0  0  0  0  0  0  0  0  0
   -1.6001    0.0000    0.0000 C   0  0  0  0  0  0  0  0  0  0  0  0
    0.0001    0.0000    0.0000 C   0  0  0  0  0  0  0  0  0  0  0  0
    1.6000    0.0000    0.0000 C   0  0  0  0  0  0  0  0  0  0  0  0
    3.2001    0.0000    0.0000 C   0  0  0  0  0  0  0  0  0  0  0  0
    4.8000    0.0000    0.0000 C   0  0  0  0  0  0  0  0  0  0  0  0
    6.3999    0.0000    0.0000 C   0  0  0  0  0  0  0  0  0  0  0  0
    7.2001    1.3856    0.0000 O   0  0  0  0  0  0  0  0  0  0  0  0
    7.2001   -1.3856    0.0000 O   0  0  0  0  0  0  0  0  0  0  0  0
    8.8000   -1.3856    0.0000 H   0  0  0  0  0  0  0  0  0  0  0  0
    4.8000   -1.6000    0.0000 H   0  0  0  0  0  0  0  0  0  0  0  0
    4.8000    1.6000    0.0000 H   0  0  0  0  0  0  0  0  0  0  0  0
    3.2001   -1.6000    0.0000 H   0  0  0  0  0  0  0  0  0  0  0  0
    3.2001    1.6000    0.0000 H   0  0  0  0  0  0  0  0  0  0  0  0
    1.6000   -1.6000    0.0000 H   0  0  0  0  0  0  0  0  0  0  0  0
    1.6000    1.6000    0.0000 H   0  0  0  0  0  0  0  0  0  0  0  0
    0.0001    1.6000    0.0000 H   0  0  0  0  0  0  0  0  0  0  0  0
    0.0001   -1.6000    0.0000 H   0  0  0  0  0  0  0  0  0  0  0  0
   -1.6001   -1.6000    0.0000 H   0  0  0  0  0  0  0  0  0  0  0  0
   -1.6001    1.6000    0.0000 H   0  0  0  0  0  0  0  0  0  0  0  0
   -3.2000    1.6000    0.0000 H   0  0  0  0  0  0  0  0  0  0  0  0
   -3.2000   -1.6000    0.0000 H   0  0  0  0  0  0  0  0  0  0  0  0
   -6.4000   -0.0000    0.0000 H   0  0  0  0  0  0  0  0  0  0  0  0
   -5.6000   -1.3856    0.0000 H   0  0  0  0  0  0  0  0  0  0  0  0
   -5.6000    1.3856    0.0000 H   0  0  0  0  0  0  0  0  0  0  0  0
  1  2  1  0  0  0  0
  2  3  1  0  0  0  0
  3  4  1  0  0  0  0
  4  5  1  0  0  0  0
  5  6  1  0  0  0  0
  6  7  1  0  0  0  0
  7  8  1  0  0  0  0
  8  9  2  0  0  0  0
  8 10  1  0  0  0  0
 10 11  1  0  0  0  0
  7 12  1  0  0  0  0
  7 13  1  0  0  0  0
  6 14  1  0  0  0  0
  6 15  1  0  0  0  0
  5 16  1  0  0  0  0
  5 17  1  0  0  0  0
  4 18  1  0  0  0  0
  4 19  1  0  0  0  0
  3 20  1  0  0  0  0
  3 21  1  0  0  0  0
  2 22  1  0  0  0  0
  2 23  1  0  0  0  0
  1 24  1  0  0  0  0
  1 25  1  0  0  0  0
  1 26  1  0  0  0  0
M  END
> <CAS>
124-07-2

> <NAME>
OCTANOIC ACID

> <preferred_name>
Octanoic acid

> <iupac>
octanoic acid

> <SMILES>
CCCCCCCC(O)=O

> <Canonical_QSARr>
CCCCCCCC(O)=O

> <InChI_Code_QSARr>
InChI=1S/C8H16O2/c1-2-3-4-5-6-7-8(9)10/h2-7H2,1H3,(H,9,10)

> <InChI Key_QSARr>
WWZKQHOCKIZLMA-UHFFFAOYSA-N

> <Salt_Solvent>
?

> <WS Temperature>
30

> <WS Reference>
YALKOWSKY,SH & DANNENFELSER,RM (1992)

> <dsstox_substance_id>
DTXSID3021645

> <LogMolar>
-2.2619

$$$$
124-17-4
  -INDIGO-01081615412D

 34 33  0  0  0  0  0  0  0  0999 V2000
   -9.6996    0.8000    0.0000 C   0  0  0  0  0  0  0  0  0  0  0  0
  -11.0852    1.6000    0.0000 O   0  0  0  0  0  0  0  0  0  0  0  0
  -12.4708    0.8000    0.0000 C   0  0  0  0  0  0  0  0  0  0  0  0
  -13.8564    1.6000    0.0000 C   0  0  0  0  0  0  0  0  0  0  0  0
  -15.2420    2.4000    0.0000 H   0  0  0  0  0  0  0  0  0  0  0  0
  -15.2420    0.8000    0.0000 H   0  0  0  0  0  0  0  0  0  0  0  0
  -13.8564    3.2000    0.0000 H   0  0  0  0  0  0  0  0  0  0  0  0
  -12.4708   -0.8000    0.0000 O   0  0  0  0  0  0  0  0  0  0  0  0
   -8.3140   -0.0000    0.0000 C   0  0  0  0  0  0  0  0  0  0  0  0
   -6.9283   -0.8000    0.0000 O   0  0  0  0  0  0  0  0  0  0  0  0
   -5.5424   -0.0000    0.0000 C   0  0  0  0  0  0  0  0  0  0  0  0
   -4.1568    0.8000    0.0000 C   0  0  0  0  0  0  0  0  0  0  0  0
   -2.7712    1.6000    0.0000 O   0  0  0  0  0  0  0  0  0  0  0  0
   -1.3856    0.8000    0.0000 C   0  0  0  0  0  0  0  0  0  0  0  0
    0.0001    0.0000    0.0000 C   0  0  0  0  0  0  0  0  0  0  0  0
    1.3857   -0.8000    0.0000 C   0  0  0  0  0  0  0  0  0  0  0  0
    2.7713   -1.6000    0.0000 C   0  0  0  0  0  0  0  0  0  0  0  0
    4.1569   -2.4000    0.0000 H   0  0  0  0  0  0  0  0  0  0  0  0
    2.7713   -3.2000    0.0000 H   0  0  0  0  0  0  0  0  0  0  0  0
    4.1569   -0.8000    0.0000 H   0  0  0  0  0  0  0  0  0  0  0  0
    0.5856   -2.1856    0.0000 H   0  0  0  0  0  0  0  0  0  0  0  0
    2.1855    0.5856    0.0000 H   0  0  0  0  0  0  0  0  0  0  0  0
    0.7999    1.3856    0.0000 H   0  0  0  0  0  0  0  0  0  0  0  0
   -0.8000   -1.3856    0.0000 H   0  0  0  0  0  0  0  0  0  0  0  0
   -2.1857   -0.5856    0.0000 H   0  0  0  0  0  0  0  0  0  0  0  0
   -0.5857    2.1856    0.0000 H   0  0  0  0  0  0  0  0  0  0  0  0
   -4.9569    2.1856    0.0000 H   0  0  0  0  0  0  0  0  0  0  0  0
   -3.3570   -0.5856    0.0000 H   0  0  0  0  0  0  0  0  0  0  0  0
   -6.3425    1.3856    0.0000 H   0  0  0  0  0  0  0  0  0  0  0  0
   -4.7426   -1.3856    0.0000 H   0  0  0  0  0  0  0  0  0  0  0  0
   -9.1138   -1.3856    0.0000 H   0  0  0  0  0  0  0  0  0  0  0  0
   -7.5138    1.3856    0.0000 H   0  0  0  0  0  0  0  0  0  0  0  0
  -10.4994   -0.5856    0.0000 H   0  0  0  0  0  0  0  0  0  0  0  0
   -8.8995    2.1856    0.0000 H   0  0  0  0  0  0  0  0  0  0  0  0
  1  2  1  0  0  0  0
  2  3  1  0  0  0  0
  3  4  1  0  0  0  0
  4  5  1  0  0  0  0
  4  6  1  0  0  0  0
  4  7  1  0  0  0  0
  3  8  2  0  0  0  0
  1  9  1  0  0  0  0
  9 10  1  0  0  0  0
 10 11  1  0  0  0  0
 11 12  1  0  0  0  0
 12 13  1  0  0  0  0
 13 14  1  0  0  0  0
 14 15  1  0  0  0  0
 15 16  1  0  0  0  0
 16 17  1  0  0  0  0
 17 18  1  0  0  0  0
 17 19  1  0  0  0  0
 17 20  1  0  0  0  0
 16 21  1  0  0  0  0
 16 22  1  0  0  0  0
 15 23  1  0  0  0  0
 15 24  1  0  0  0  0
 14 25  1  0  0  0  0
 14 26  1  0  0  0  0
 12 27  1  0  0  0  0
 12 28  1  0  0  0  0
 11 29  1  0  0  0  0
 11 30  1  0  0  0  0
  9 31  1  0  0  0  0
  9 32  1  0  0  0  0
  1 33  1  0  0  0  0
  1 34  1  0  0  0  0
M  END
> <CAS>
124-17-4

> <NAME>
DIETHYLENE GLYCOL MONOBUTYL ETHER ACETATE

> <preferred_name>
2-(2-Butoxyethoxy)ethyl acetate

> <iupac>
2-(2-butoxyethoxy)ethyl acetate

> <SMILES>
CCCCOCCOCCOC(C)=O

> <Canonical_QSARr>
CCCCOCCOCCOC(C)=O

> <InChI_Code_QSARr>
InChI=1S/C10H20O4/c1-3-4-5-12-6-7-13-8-9-14-10(2)11/h3-9H2,1-2H3

> <InChI Key_QSARr>
VXQBJTKSVGFQOL-UHFFFAOYSA-N

> <Salt_Solvent>
?

> <WS Temperature>
25

> <WS Reference>
CHEMICALS INSPECTION AND TESTING INSTITU (1992)

> <dsstox_substance_id>
DTXSID9027021

> <LogMolar>
-0.6579

$$$$
124-38-9
  -INDIGO-01081615412D

  3  2  0  0  0  0  0  0  0  0999 V2000
    0.0000   -0.0000    0.0000 C   0  0  0  0  0  0  0  0  0  0  0  0
   -1.6000   -0.0000    0.0000 O   0  0  0  0  0  0  0  0  0  0  0  0
    1.6000   -0.0000    0.0000 O   0  0  0  0  0  0  0  0  0  0  0  0
  1  2  2  0  0  0  0
  1  3  2  0  0  0  0
M  END
> <CAS>
124-38-9

> <NAME>
CARBON DIOXIDE

> <preferred_name>
Carbon dioxide

> <iupac>
methanedione

> <SMILES>
O=C=O

> <Canonical_QSARr>
O=C=O

> <InChI_Code_QSARr>
InChI=1S/CO2/c2-1-3

> <InChI Key_QSARr>
CURLTUGMZLYLDI-UHFFFAOYSA-N

> <Salt_Solvent>
?

> <WS Temperature>
25

> <WS Reference>
YALKOWSKY,SH & DANNENFELSER,RM (1992)

> <dsstox_substance_id>
DTXSID4027028

> <LogMolar>
-1.4748

$$$$
124-68-5
  -INDIGO-01081615412D

 17 16  0  0  0  0  0  0  0  0999 V2000
    1.3856    0.8000    0.0000 C   0  0  0  0  0  0  0  0  0  0  0  0
    2.7713    1.6000    0.0000 O   0  0  0  0  0  0  0  0  0  0  0  0
    4.1569    0.8000    0.0000 H   0  0  0  0  0  0  0  0  0  0  0  0
    0.0000   -0.0000    0.0000 C   0  0  0  0  0  0  0  0  0  0  0  0
   -1.3856   -0.8000    0.0000 C   0  0  0  0  0  0  0  0  0  0  0  0
   -2.7713   -1.6000    0.0000 H   0  0  0  0  0  0  0  0  0  0  0  0
   -1.3856   -2.4000    0.0000 H   0  0  0  0  0  0  0  0  0  0  0  0
   -2.7713   -0.0000    0.0000 H   0  0  0  0  0  0  0  0  0  0  0  0
    0.8000   -1.3856    0.0000 N   0  0  0  0  0  0  0  0  0  0  0  0
    0.0000   -2.7713    0.0000 H   0  0  0  0  0  0  0  0  0  0  0  0
    2.3035   -1.9329    0.0000 H   0  0  0  0  0  0  0  0  0  0  0  0
   -0.8000    1.3856    0.0000 C   0  0  0  0  0  0  0  0  0  0  0  0
   -1.6000    2.7713    0.0000 H   0  0  0  0  0  0  0  0  0  0  0  0
   -2.4000    1.3856    0.0000 H   0  0  0  0  0  0  0  0  0  0  0  0
    0.0000    2.7713    0.0000 H   0  0  0  0  0  0  0  0  0  0  0  0
    2.1856   -0.5856    0.0000 H   0  0  0  0  0  0  0  0  0  0  0  0
    0.8384    2.3035    0.0000 H   0  0  0  0  0  0  0  0  0  0  0  0
  1  2  1  0  0  0  0
  2  3  1  0  0  0  0
  1  4  1  0  0  0  0
  4  5  1  0  0  0  0
  5  6  1  0  0  0  0
  5  7  1  0  0  0  0
  5  8  1  0  0  0  0
  4  9  1  0  0  0  0
  9 10  1  0  0  0  0
  9 11  1  0  0  0  0
  4 12  1  0  0  0  0
 12 13  1  0  0  0  0
 12 14  1  0  0  0  0
 12 15  1  0  0  0  0
  1 16  1  0  0  0  0
  1 17  1  0  0  0  0
M  END
> <CAS>
124-68-5

> <NAME>
2-AMINO-2-METHYL-1-PROPANOL

> <preferred_name>
2-Amino-2-methylpropan-1-ol

> <iupac>
2-amino-2-methylpropan-1-ol

> <SMILES>
CC(C)(N)CO

> <Canonical_QSARr>
CC(C)(N)CO

> <InChI_Code_QSARr>
InChI=1S/C4H11NO/c1-4(2,5)3-6/h6H,3,5H2,1-2H3

> <InChI Key_QSARr>
CBTVGIZVANVGBH-UHFFFAOYSA-N

> <Salt_Solvent>
?

> <WS Temperature>
25

> <WS Reference>
KIRK-OTHMER; 4th ed, 2:27 (1992)

> <dsstox_substance_id>
DTXSID8027032

> <LogMolar>
1.0499

$$$$
124-94-7
  -INDIGO-01081615412D

 55 58  0  0  0  0  0  0  0  0999 V2000
    0.0001   -0.0000    0.0000 C   0  0  0  0  0  0  0  0  0  0  0  0
    0.9403    1.2944    0.0000 C   0  0  0  0  0  0  0  0  0  0  0  0
    2.0915    2.4059    0.0000 H   0  0  0  0  0  0  0  0  0  0  0  0
    1.1077    2.8856    0.0000 H   0  0  0  0  0  0  0  0  0  0  0  0
    2.4784    0.8534    0.0000 H   0  0  0  0  0  0  0  0  0  0  0  0
   -0.8001    1.3857    0.0000 C   0  0  0  0  0  0  0  0  0  0  0  0
    0.4258    2.4142    0.0000 H   0  0  0  0  0  0  0  0  0  0  0  0
   -1.0778    2.9613    0.0000 H   0  0  0  0  0  0  0  0  0  0  0  0
   -2.3999    1.3857    0.0000 C   0  0  0  0  0  0  0  0  0  0  0  0
   -2.1221    2.9613    0.0000 O   0  0  0  0  0  0  0  0  0  0  0  0
   -3.3477    3.9898    0.0000 H   0  0  0  0  0  0  0  0  0  0  0  0
   -3.4285    2.6113    0.0000 H   0  0  0  0  0  0  0  0  0  0  0  0
   -3.2001   -0.0000    0.0000 C   0  0  0  0  0  0  0  0  0  0  0  0
   -3.1763    0.9758    0.0000 F   0  0  0  0  0  0  0  0  0  0  0  0
   -2.3999   -1.3856    0.0000 C   0  0  0  0  0  0  0  0  0  0  0  0
   -3.2001   -2.7713    0.0000 C   0  0  0  0  0  0  0  0  0  0  0  0
   -4.7999   -2.7713    0.0000 C   0  0  0  0  0  0  0  0  0  0  0  0
   -5.6001   -1.3856    0.0000 C   0  0  0  0  0  0  0  0  0  0  0  0
   -7.2000   -1.3856    0.0000 C   0  0  0  0  0  0  0  0  0  0  0  0
   -7.9999   -2.7713    0.0000 H   0  0  0  0  0  0  0  0  0  0  0  0
   -7.9999   -0.0000    0.0000 C   0  0  0  0  0  0  0  0  0  0  0  0
   -9.6000   -0.0000    0.0000 O   0  0  0  0  0  0  0  0  0  0  0  0
   -7.2000    1.3857    0.0000 C   0  0  0  0  0  0  0  0  0  0  0  0
   -7.9999    2.7712    0.0000 H   0  0  0  0  0  0  0  0  0  0  0  0
   -5.6001    1.3857    0.0000 C   0  0  0  0  0  0  0  0  0  0  0  0
   -5.3221    2.9613    0.0000 H   0  0  0  0  0  0  0  0  0  0  0  0
   -4.7999   -0.0000    0.0000 C   0  0  0  0  0  0  0  0  0  0  0  0
   -4.3887    0.4902    0.0000 C   0  0  0  0  0  0  0  0  0  0  0  0
   -4.0000    1.3857    0.0000 H   0  0  0  0  0  0  0  0  0  0  0  0
   -4.9359    1.9937    0.0000 H   0  0  0  0  0  0  0  0  0  0  0  0
   -5.9886    0.4902    0.0000 H   0  0  0  0  0  0  0  0  0  0  0  0
   -6.3036   -3.3185    0.0000 H   0  0  0  0  0  0  0  0  0  0  0  0
   -4.5222   -4.3470    0.0000 H   0  0  0  0  0  0  0  0  0  0  0  0
   -3.4779   -4.3470    0.0000 H   0  0  0  0  0  0  0  0  0  0  0  0
   -1.9742   -3.7997    0.0000 H   0  0  0  0  0  0  0  0  0  0  0  0
   -1.6000   -2.7713    0.0000 H   0  0  0  0  0  0  0  0  0  0  0  0
   -0.8001   -1.3856    0.0000 C   0  0  0  0  0  0  0  0  0  0  0  0
   -0.6327   -2.9769    0.0000 H   0  0  0  0  0  0  0  0  0  0  0  0
    0.2706   -2.5747    0.0000 C   0  0  0  0  0  0  0  0  0  0  0  0
   -0.3802   -4.0363    0.0000 H   0  0  0  0  0  0  0  0  0  0  0  0
    1.0705   -3.9603    0.0000 H   0  0  0  0  0  0  0  0  0  0  0  0
    1.7322   -1.9239    0.0000 C   0  0  0  0  0  0  0  0  0  0  0  0
    2.2267   -3.4456    0.0000 O   0  0  0  0  0  0  0  0  0  0  0  0
    3.7919   -3.7782    0.0000 H   0  0  0  0  0  0  0  0  0  0  0  0
    3.2973   -1.5912    0.0000 H   0  0  0  0  0  0  0  0  0  0  0  0
    1.5650   -0.3327    0.0000 C   0  0  0  0  0  0  0  0  0  0  0  0
    1.7322    1.2586    0.0000 O   0  0  0  0  0  0  0  0  0  0  0  0
    3.1940    1.9094    0.0000 H   0  0  0  0  0  0  0  0  0  0  0  0
    3.1651   -0.3327    0.0000 C   0  0  0  0  0  0  0  0  0  0  0  0
    4.3907   -1.3611    0.0000 C   0  0  0  0  0  0  0  0  0  0  0  0
    5.4191   -0.1354    0.0000 O   0  0  0  0  0  0  0  0  0  0  0  0
    6.9949   -0.4132    0.0000 H   0  0  0  0  0  0  0  0  0  0  0  0
    5.6163   -2.3896    0.0000 H   0  0  0  0  0  0  0  0  0  0  0  0
    3.3621   -2.5868    0.0000 H   0  0  0  0  0  0  0  0  0  0  0  0
    3.9651    1.0530    0.0000 O   0  0  0  0  0  0  0  0  0  0  0  0
  1  2  1  0  0  0  0
  2  3  1  0  0  0  0
  2  4  1  0  0  0  0
  2  5  1  0  0  0  0
  1  6  1  0  0  0  0
  6  7  1  0  0  0  0
  6  8  1  0  0  0  0
  6  9  1  0  0  0  0
  9 10  1  0  0  0  0
 10 11  1  0  0  0  0
  9 12  1  0  0  0  0
  9 13  1  0  0  0  0
 13 14  1  0  0  0  0
 13 15  1  0  0  0  0
 15 16  1  0  0  0  0
 16 17  1  0  0  0  0
 17 18  1  0  0  0  0
 18 19  2  0  0  0  0
 19 20  1  0  0  0  0
 19 21  1  0  0  0  0
 21 22  2  0  0  0  0
 21 23  1  0  0  0  0
 23 24  1  0  0  0  0
 23 25  2  0  0  0  0
 25 26  1  0  0  0  0
 25 27  1  0  0  0  0
 27 18  1  0  0  0  0
 27 13  1  0  0  0  0
 27 28  1  0  0  0  0
 28 29  1  0  0  0  0
 28 30  1  0  0  0  0
 28 31  1  0  0  0  0
 17 32  1  0  0  0  0
 17 33  1  0  0  0  0
 16 34  1  0  0  0  0
 16 35  1  0  0  0  0
 15 36  1  0  0  0  0
 15 37  1  0  0  0  0
 37  1  1  0  0  0  0
 37 38  1  0  0  0  0
 37 39  1  0  0  0  0
 39 40  1  0  0  0  0
 39 41  1  0  0  0  0
 39 42  1  0  0  0  0
 42 43  1  0  0  0  0
 43 44  1  0  0  0  0
 42 45  1  0  0  0  0
 42 46  1  0  0  0  0
 46  1  1  0  0  0  0
 46 47  1  0  0  0  0
 47 48  1  0  0  0  0
 46 49  1  0  0  0  0
 49 50  1  0  0  0  0
 50 51  1  0  0  0  0
 51 52  1  0  0  0  0
 50 53  1  0  0  0  0
 50 54  1  0  0  0  0
 49 55  2  0  0  0  0
M  END
> <CAS>
124-94-7

> <NAME>
TRIAMCINOLONE

> <preferred_name>
Triamcinolone

> <iupac>
(11beta,16alpha)-9-fluoro-11,16,17,21-tetrahydroxypregna-1,4-diene-3,20-dione

> <SMILES>
C[C@]12C=CC(=O)C=C1CC[C@H]1[C@@H]3C[C@@H](O)[C@](O)(C(=O)CO)[C@@]3(C)C[C@H](O)[C@]21F

> <Canonical_QSARr>
CC12C=CC(=O)C=C1CCC1C3CC(O)C(O)(C(=O)CO)C3(C)CC(O)C21F

> <InChI_Code_QSARr>
InChI=1S/C21H27FO6/c1-18-6-5-12(24)7-11(18)3-4-13-14-8-15(25)21(28,17(27)10-23)19(14,2)9-16(26)20(13,18)22/h5-7,13-16,23,25-26,28H,3-4,8-10H2,1-2H3

> <InChI Key_QSARr>
GFNANZIMVAIWHM-UHFFFAOYSA-N

> <Salt_Solvent>
?

> <WS Temperature>
25

> <WS Reference>
YALKOWSKY,SH & HE,Y (2003)

> <dsstox_substance_id>
DTXSID1040742

> <LogMolar>
-3.6929

$$$$
126-14-7
  -INDIGO-01081615412D

 85 86  0  0  0  0  0  0  0  0999 V2000
   -1.5758    0.2779    0.0000 O   0  0  0  0  0  0  0  0  0  0  0  0
   -2.8014   -0.7505    0.0000 C   0  0  0  0  0  0  0  0  0  0  0  0
   -3.6015    0.6350    0.0000 O   0  0  0  0  0  0  0  0  0  0  0  0
   -5.2014    0.6350    0.0000 C   0  0  0  0  0  0  0  0  0  0  0  0
   -4.9236    2.2108    0.0000 C   0  0  0  0  0  0  0  0  0  0  0  0
   -4.6458    3.7863    0.0000 O   0  0  0  0  0  0  0  0  0  0  0  0
   -5.8713    4.8150    0.0000 C   0  0  0  0  0  0  0  0  0  0  0  0
   -7.3747    4.2676    0.0000 O   0  0  0  0  0  0  0  0  0  0  0  0
   -5.5935    6.3905    0.0000 C   0  0  0  0  0  0  0  0  0  0  0  0
   -5.3157    7.9662    0.0000 H   0  0  0  0  0  0  0  0  0  0  0  0
   -6.8191    7.4191    0.0000 H   0  0  0  0  0  0  0  0  0  0  0  0
   -4.0902    6.9378    0.0000 H   0  0  0  0  0  0  0  0  0  0  0  0
   -6.4992    2.4886    0.0000 H   0  0  0  0  0  0  0  0  0  0  0  0
   -3.3480    1.9328    0.0000 H   0  0  0  0  0  0  0  0  0  0  0  0
   -6.7048    1.1821    0.0000 H   0  0  0  0  0  0  0  0  0  0  0  0
   -6.0012   -0.7505    0.0000 C   0  0  0  0  0  0  0  0  0  0  0  0
   -7.2271    0.2779    0.0000 O   0  0  0  0  0  0  0  0  0  0  0  0
   -8.7305   -0.2695    0.0000 C   0  0  0  0  0  0  0  0  0  0  0  0
   -9.0083   -1.8450    0.0000 O   0  0  0  0  0  0  0  0  0  0  0  0
   -9.9563    0.7592    0.0000 C   0  0  0  0  0  0  0  0  0  0  0  0
  -11.1819    1.7876    0.0000 H   0  0  0  0  0  0  0  0  0  0  0  0
  -11.4597    0.2118    0.0000 H   0  0  0  0  0  0  0  0  0  0  0  0
   -9.6785    2.3347    0.0000 H   0  0  0  0  0  0  0  0  0  0  0  0
   -7.2271   -1.7792    0.0000 H   0  0  0  0  0  0  0  0  0  0  0  0
   -5.2014   -2.1363    0.0000 C   0  0  0  0  0  0  0  0  0  0  0  0
   -4.9236   -3.7119    0.0000 O   0  0  0  0  0  0  0  0  0  0  0  0
   -6.1492   -4.7405    0.0000 C   0  0  0  0  0  0  0  0  0  0  0  0
   -7.6528   -4.1932    0.0000 O   0  0  0  0  0  0  0  0  0  0  0  0
   -5.8713   -6.3160    0.0000 C   0  0  0  0  0  0  0  0  0  0  0  0
   -5.5935   -7.8918    0.0000 H   0  0  0  0  0  0  0  0  0  0  0  0
   -7.0969   -7.3447    0.0000 H   0  0  0  0  0  0  0  0  0  0  0  0
   -4.3680   -6.8634    0.0000 H   0  0  0  0  0  0  0  0  0  0  0  0
   -6.7048   -2.6835    0.0000 H   0  0  0  0  0  0  0  0  0  0  0  0
   -3.6015   -2.1363    0.0000 C   0  0  0  0  0  0  0  0  0  0  0  0
   -2.3756   -3.1648    0.0000 O   0  0  0  0  0  0  0  0  0  0  0  0
   -2.6534   -4.7405    0.0000 C   0  0  0  0  0  0  0  0  0  0  0  0
   -4.1571   -5.2876    0.0000 O   0  0  0  0  0  0  0  0  0  0  0  0
   -1.4279   -5.7689    0.0000 C   0  0  0  0  0  0  0  0  0  0  0  0
   -1.7057   -7.3447    0.0000 H   0  0  0  0  0  0  0  0  0  0  0  0
   -0.2023   -6.7973    0.0000 H   0  0  0  0  0  0  0  0  0  0  0  0
   -2.9312   -6.3160    0.0000 H   0  0  0  0  0  0  0  0  0  0  0  0
   -3.8793   -3.7119    0.0000 H   0  0  0  0  0  0  0  0  0  0  0  0
   -2.0012   -2.1363    0.0000 H   0  0  0  0  0  0  0  0  0  0  0  0
    0.0001    0.0001    0.0000 C   0  0  0  0  0  0  0  0  0  0  0  0
    1.4836   -0.5993    0.0000 O   0  0  0  0  0  0  0  0  0  0  0  0
    2.5120    0.6263    0.0000 C   0  0  0  0  0  0  0  0  0  0  0  0
    3.6233   -0.5245    0.0000 C   0  0  0  0  0  0  0  0  0  0  0  0
    4.7348   -1.6756    0.0000 O   0  0  0  0  0  0  0  0  0  0  0  0
    6.2874   -1.2885    0.0000 C   0  0  0  0  0  0  0  0  0  0  0  0
    6.7284    0.2496    0.0000 O   0  0  0  0  0  0  0  0  0  0  0  0
    7.3987   -2.4395    0.0000 C   0  0  0  0  0  0  0  0  0  0  0  0
    8.5102   -3.5904    0.0000 H   0  0  0  0  0  0  0  0  0  0  0  0
    8.9513   -2.0524    0.0000 H   0  0  0  0  0  0  0  0  0  0  0  0
    6.9577   -3.9776    0.0000 H   0  0  0  0  0  0  0  0  0  0  0  0
    4.7744    0.5869    0.0000 H   0  0  0  0  0  0  0  0  0  0  0  0
    2.4724   -1.6362    0.0000 H   0  0  0  0  0  0  0  0  0  0  0  0
    3.7728    1.6114    0.0000 H   0  0  0  0  0  0  0  0  0  0  0  0
    1.6642    1.9831    0.0000 C   0  0  0  0  0  0  0  0  0  0  0  0
    3.1022    2.6846    0.0000 O   0  0  0  0  0  0  0  0  0  0  0  0
    3.2137    4.2807    0.0000 C   0  0  0  0  0  0  0  0  0  0  0  0
    1.8872    5.1753    0.0000 O   0  0  0  0  0  0  0  0  0  0  0  0
    4.6520    4.9822    0.0000 C   0  0  0  0  0  0  0  0  0  0  0  0
    6.0900    5.6834    0.0000 H   0  0  0  0  0  0  0  0  0  0  0  0
    4.7635    6.5783    0.0000 H   0  0  0  0  0  0  0  0  0  0  0  0
    5.9781    4.0873    0.0000 H   0  0  0  0  0  0  0  0  0  0  0  0
    1.1167    3.4867    0.0000 H   0  0  0  0  0  0  0  0  0  0  0  0
    0.1116    1.5962    0.0000 C   0  0  0  0  0  0  0  0  0  0  0  0
   -0.1110    3.1806    0.0000 O   0  0  0  0  0  0  0  0  0  0  0  0
   -1.4680    4.0283    0.0000 C   0  0  0  0  0  0  0  0  0  0  0  0
   -2.8808    3.2772    0.0000 O   0  0  0  0  0  0  0  0  0  0  0  0
   -1.4120    5.6275    0.0000 C   0  0  0  0  0  0  0  0  0  0  0  0
   -1.3562    7.2265    0.0000 H   0  0  0  0  0  0  0  0  0  0  0  0
    0.0008    6.3786    0.0000 H   0  0  0  0  0  0  0  0  0  0  0  0
   -2.7690    6.4752    0.0000 H   0  0  0  0  0  0  0  0  0  0  0  0
   -1.4874    1.5403    0.0000 H   0  0  0  0  0  0  0  0  0  0  0  0
   -0.1671   -1.5912    0.0000 C   0  0  0  0  0  0  0  0  0  0  0  0
    1.2709   -2.2927    0.0000 O   0  0  0  0  0  0  0  0  0  0  0  0
    1.3824   -3.8888    0.0000 C   0  0  0  0  0  0  0  0  0  0  0  0
    0.0559   -4.7833    0.0000 O   0  0  0  0  0  0  0  0  0  0  0  0
    2.8206   -4.5900    0.0000 C   0  0  0  0  0  0  0  0  0  0  0  0
    4.2586   -5.2915    0.0000 H   0  0  0  0  0  0  0  0  0  0  0  0
    2.9321   -6.1863    0.0000 H   0  0  0  0  0  0  0  0  0  0  0  0
    4.1471   -3.6954    0.0000 H   0  0  0  0  0  0  0  0  0  0  0  0
   -0.8685   -3.0292    0.0000 H   0  0  0  0  0  0  0  0  0  0  0  0
   -1.6054   -0.8899    0.0000 H   0  0  0  0  0  0  0  0  0  0  0  0
  1  2  1  0  0  0  0
  2  3  1  0  0  0  0
  3  4  1  0  0  0  0
  4  5  1  0  0  0  0
  5  6  1  0  0  0  0
  6  7  1  0  0  0  0
  7  8  2  0  0  0  0
  7  9  1  0  0  0  0
  9 10  1  0  0  0  0
  9 11  1  0  0  0  0
  9 12  1  0  0  0  0
  5 13  1  0  0  0  0
  5 14  1  0  0  0  0
  4 15  1  0  0  0  0
  4 16  1  0  0  0  0
 16 17  1  0  0  0  0
 17 18  1  0  0  0  0
 18 19  2  0  0  0  0
 18 20  1  0  0  0  0
 20 21  1  0  0  0  0
 20 22  1  0  0  0  0
 20 23  1  0  0  0  0
 16 24  1  0  0  0  0
 16 25  1  0  0  0  0
 25 26  1  0  0  0  0
 26 27  1  0  0  0  0
 27 28  2  0  0  0  0
 27 29  1  0  0  0  0
 29 30  1  0  0  0  0
 29 31  1  0  0  0  0
 29 32  1  0  0  0  0
 25 33  1  0  0  0  0
 25 34  1  0  0  0  0
 34  2  1  0  0  0  0
 34 35  1  0  0  0  0
 35 36  1  0  0  0  0
 36 37  2  0  0  0  0
 36 38  1  0  0  0  0
 38 39  1  0  0  0  0
 38 40  1  0  0  0  0
 38 41  1  0  0  0  0
 34 42  1  0  0  0  0
  2 43  1  0  0  0  0
  1 44  1  0  0  0  0
 44 45  1  0  0  0  0
 45 46  1  0  0  0  0
 46 47  1  0  0  0  0
 47 48  1  0  0  0  0
 48 49  1  0  0  0  0
 49 50  2  0  0  0  0
 49 51  1  0  0  0  0
 51 52  1  0  0  0  0
 51 53  1  0  0  0  0
 51 54  1  0  0  0  0
 47 55  1  0  0  0  0
 47 56  1  0  0  0  0
 46 57  1  0  0  0  0
 46 58  1  0  0  0  0
 58 59  1  0  0  0  0
 59 60  1  0  0  0  0
 60 61  2  0  0  0  0
 60 62  1  0  0  0  0
 62 63  1  0  0  0  0
 62 64  1  0  0  0  0
 62 65  1  0  0  0  0
 58 66  1  0  0  0  0
 58 67  1  0  0  0  0
 67 44  1  0  0  0  0
 67 68  1  0  0  0  0
 68 69  1  0  0  0  0
 69 70  2  0  0  0  0
 69 71  1  0  0  0  0
 71 72  1  0  0  0  0
 71 73  1  0  0  0  0
 71 74  1  0  0  0  0
 67 75  1  0  0  0  0
 44 76  1  0  0  0  0
 76 77  1  0  0  0  0
 77 78  1  0  0  0  0
 78 79  2  0  0  0  0
 78 80  1  0  0  0  0
 80 81  1  0  0  0  0
 80 82  1  0  0  0  0
 80 83  1  0  0  0  0
 76 84  1  0  0  0  0
 76 85  1  0  0  0  0
M  END
> <CAS>
126-14-7

> <NAME>
Sucrose octaacetate

> <preferred_name>
Sucrose octaacetate

> <iupac>
1,3,4,6-tetra-O-acetyl-beta-D-fructofuranosyl 2,3,4,6-tetra-O-acetyl-alpha-D-glucopyranoside

> <SMILES>
CC(=O)O[C@@H]1[C@@H](OC(C)=O)[C@@H](O[C@]2(COC(C)=O)O[C@H](COC(C)=O)[C@@H](OC(C)=O)[C@@H]2OC(C)=O)O[C@H](COC(C)=O)[C@H]1OC(C)=O

> <Canonical_QSARr>
CC(=O)OC1C(OC(C)=O)C(OC2(COC(C)=O)OC(COC(C)=O)C(OC(C)=O)C2OC(C)=O)OC(COC(C)=O)C1OC(C)=O

> <InChI_Code_QSARr>
InChI=1S/C28H38O19/c1-12(29)37-9-20-22(40-15(4)32)24(42-17(6)34)25(43-18(7)35)27(45-20)47-28(11-39-14(3)31)26(44-19(8)36)23(41-16(5)33)21(46-28)10-38-13(2)30/h20-27H,9-11H2,1-8H3

> <InChI Key_QSARr>
ZIJKGAXBCRWEOL-UHFFFAOYSA-N

> <Salt_Solvent>
?

> <WS Temperature>


> <WS Reference>
MERCK INDEX (1996)

> <dsstox_substance_id>
DTXSID3042423

> <LogMolar>
-2.8726

$$$$
126-73-8
  -INDIGO-01081615412D

 44 43  0  0  0  0  0  0  0  0999 V2000
    3.1999    0.0000    0.0000 C   0  0  0  0  0  0  0  0  0  0  0  0
    1.6001    0.0000    0.0000 C   0  0  0  0  0  0  0  0  0  0  0  0
    0.0000    0.0000    0.0000 C   0  0  0  0  0  0  0  0  0  0  0  0
   -1.6000    0.0000    0.0000 C   0  0  0  0  0  0  0  0  0  0  0  0
   -3.2001    0.0000    0.0000 O   0  0  0  0  0  0  0  0  0  0  0  0
   -3.9999   -1.3856    0.0000 P   0  0  0  0  0  0  0  0  0  0  0  0
   -4.7999   -2.7713    0.0000 O   0  0  0  0  0  0  0  0  0  0  0  0
   -6.4000   -2.7713    0.0000 C   0  0  0  0  0  0  0  0  0  0  0  0
   -8.0000   -2.7713    0.0000 C   0  0  0  0  0  0  0  0  0  0  0  0
   -9.6001   -2.7713    0.0000 C   0  0  0  0  0  0  0  0  0  0  0  0
  -11.1999   -2.7713    0.0000 C   0  0  0  0  0  0  0  0  0  0  0  0
  -12.8000   -2.7713    0.0000 H   0  0  0  0  0  0  0  0  0  0  0  0
  -12.0000   -4.1569    0.0000 H   0  0  0  0  0  0  0  0  0  0  0  0
  -12.0000   -1.3856    0.0000 H   0  0  0  0  0  0  0  0  0  0  0  0
   -9.6001   -4.3713    0.0000 H   0  0  0  0  0  0  0  0  0  0  0  0
   -9.6001   -1.1713    0.0000 H   0  0  0  0  0  0  0  0  0  0  0  0
   -8.0000   -4.3713    0.0000 H   0  0  0  0  0  0  0  0  0  0  0  0
   -8.0000   -1.1713    0.0000 H   0  0  0  0  0  0  0  0  0  0  0  0
   -6.4000   -4.3713    0.0000 H   0  0  0  0  0  0  0  0  0  0  0  0
   -6.4000   -1.1713    0.0000 H   0  0  0  0  0  0  0  0  0  0  0  0
   -5.3856   -0.5857    0.0000 O   0  0  0  0  0  0  0  0  0  0  0  0
   -5.3856    1.0143    0.0000 C   0  0  0  0  0  0  0  0  0  0  0  0
   -5.3856    2.6143    0.0000 C   0  0  0  0  0  0  0  0  0  0  0  0
   -5.3856    4.2143    0.0000 C   0  0  0  0  0  0  0  0  0  0  0  0
   -5.3856    5.8143    0.0000 C   0  0  0  0  0  0  0  0  0  0  0  0
   -5.3856    7.4144    0.0000 H   0  0  0  0  0  0  0  0  0  0  0  0
   -6.7714    6.6144    0.0000 H   0  0  0  0  0  0  0  0  0  0  0  0
   -4.0001    6.6144    0.0000 H   0  0  0  0  0  0  0  0  0  0  0  0
   -6.9857    4.2143    0.0000 H   0  0  0  0  0  0  0  0  0  0  0  0
   -3.7856    4.2143    0.0000 H   0  0  0  0  0  0  0  0  0  0  0  0
   -6.9857    2.6143    0.0000 H   0  0  0  0  0  0  0  0  0  0  0  0
   -3.7856    2.6143    0.0000 H   0  0  0  0  0  0  0  0  0  0  0  0
   -6.9857    1.0143    0.0000 H   0  0  0  0  0  0  0  0  0  0  0  0
   -3.7856    1.0143    0.0000 H   0  0  0  0  0  0  0  0  0  0  0  0
   -2.6144   -2.1857    0.0000 O   0  0  0  0  0  0  0  0  0  0  0  0
   -1.6000   -1.6000    0.0000 H   0  0  0  0  0  0  0  0  0  0  0  0
   -1.6000    1.6000    0.0000 H   0  0  0  0  0  0  0  0  0  0  0  0
    0.0000    1.6000    0.0000 H   0  0  0  0  0  0  0  0  0  0  0  0
    0.0000   -1.6000    0.0000 H   0  0  0  0  0  0  0  0  0  0  0  0
    1.6001   -1.6000    0.0000 H   0  0  0  0  0  0  0  0  0  0  0  0
    1.6001    1.6000    0.0000 H   0  0  0  0  0  0  0  0  0  0  0  0
    4.8000    0.0000    0.0000 H   0  0  0  0  0  0  0  0  0  0  0  0
    4.0000   -1.3856    0.0000 H   0  0  0  0  0  0  0  0  0  0  0  0
    4.0000    1.3857    0.0000 H   0  0  0  0  0  0  0  0  0  0  0  0
  1  2  1  0  0  0  0
  2  3  1  0  0  0  0
  3  4  1  0  0  0  0
  4  5  1  0  0  0  0
  5  6  1  0  0  0  0
  6  7  1  0  0  0  0
  7  8  1  0  0  0  0
  8  9  1  0  0  0  0
  9 10  1  0  0  0  0
 10 11  1  0  0  0  0
 11 12  1  0  0  0  0
 11 13  1  0  0  0  0
 11 14  1  0  0  0  0
 10 15  1  0  0  0  0
 10 16  1  0  0  0  0
  9 17  1  0  0  0  0
  9 18  1  0  0  0  0
  8 19  1  0  0  0  0
  8 20  1  0  0  0  0
  6 21  1  0  0  0  0
 21 22  1  0  0  0  0
 22 23  1  0  0  0  0
 23 24  1  0  0  0  0
 24 25  1  0  0  0  0
 25 26  1  0  0  0  0
 25 27  1  0  0  0  0
 25 28  1  0  0  0  0
 24 29  1  0  0  0  0
 24 30  1  0  0  0  0
 23 31  1  0  0  0  0
 23 32  1  0  0  0  0
 22 33  1  0  0  0  0
 22 34  1  0  0  0  0
  6 35  2  0  0  0  0
  4 36  1  0  0  0  0
  4 37  1  0  0  0  0
  3 38  1  0  0  0  0
  3 39  1  0  0  0  0
  2 40  1  0  0  0  0
  2 41  1  0  0  0  0
  1 42  1  0  0  0  0
  1 43  1  0  0  0  0
  1 44  1  0  0  0  0
M  END
> <CAS>
126-73-8

> <NAME>
TRIBUTYLPHOSPHATE

> <preferred_name>
Tributyl phosphate

> <iupac>
tributyl phosphate

> <SMILES>
CCCCOP(=O)(OCCCC)OCCCC

> <Canonical_QSARr>
CCCCOP(=O)(OCCCC)OCCCC

> <InChI_Code_QSARr>
InChI=1S/C12H27O4P/c1-4-7-10-14-17(13,15-11-8-5-2)16-12-9-6-3/h4-12H2,1-3H3

> <InChI Key_QSARr>
STCOOQWBFONSKY-UHFFFAOYSA-N

> <Salt_Solvent>
?

> <WS Temperature>
25

> <WS Reference>
SAEGER,VW ET AL. (1979)

> <dsstox_substance_id>
DTXSID3021986

> <LogMolar>
-2.9782

$$$$
126-98-7
  -INDIGO-01081615412D

 10  9  0  0  0  0  0  0  0  0999 V2000
   -2.7713   -1.6000    0.0000 N   0  0  0  0  0  0  0  0  0  0  0  0
   -1.3856   -0.8000    0.0000 C   0  0  0  0  0  0  0  0  0  0  0  0
   -0.0000    0.0000    0.0000 C   0  0  0  0  0  0  0  0  0  0  0  0
    1.3856   -0.8000    0.0000 C   0  0  0  0  0  0  0  0  0  0  0  0
    2.7713   -1.6000    0.0000 H   0  0  0  0  0  0  0  0  0  0  0  0
    1.3856   -2.4000    0.0000 H   0  0  0  0  0  0  0  0  0  0  0  0
    2.7713    0.0000    0.0000 H   0  0  0  0  0  0  0  0  0  0  0  0
   -0.0000    1.6000    0.0000 C   0  0  0  0  0  0  0  0  0  0  0  0
   -1.3856    2.4000    0.0000 H   0  0  0  0  0  0  0  0  0  0  0  0
    1.3856    2.4000    0.0000 H   0  0  0  0  0  0  0  0  0  0  0  0
  1  2  3  0  0  0  0
  2  3  1  0  0  0  0
  3  4  1  0  0  0  0
  4  5  1  0  0  0  0
  4  6  1  0  0  0  0
  4  7  1  0  0  0  0
  3  8  2  0  0  0  0
  8  9  1  0  0  0  0
  8 10  1  0  0  0  0
M  END
> <CAS>
126-98-7

> <NAME>
METHACRYLONITRILE

> <preferred_name>
Methacrylonitrile

> <iupac>
2-methylprop-2-enenitrile

> <SMILES>
CC(=C)C#N

> <Canonical_QSARr>
CC(=C)C#N

> <InChI_Code_QSARr>
InChI=1S/C4H5N/c1-4(2)3-5/h1H2,2H3

> <InChI Key_QSARr>
GYCMBHHDWRMZGG-UHFFFAOYSA-N

> <Salt_Solvent>
?

> <WS Temperature>
25

> <WS Reference>
YALKOWSKY,SH & DANNENFELSER,RM (1992)

> <dsstox_substance_id>
DTXSID1024176

> <LogMolar>
-0.4218

$$$$
127-19-5
  -INDIGO-01081615412D

 15 14  0  0  0  0  0  0  0  0999 V2000
    1.6000    0.0000    0.0000 C   0  0  0  0  0  0  0  0  0  0  0  0
    2.4000    1.3856    0.0000 C   0  0  0  0  0  0  0  0  0  0  0  0
    3.2000    2.7713    0.0000 H   0  0  0  0  0  0  0  0  0  0  0  0
    4.0000    1.3856    0.0000 H   0  0  0  0  0  0  0  0  0  0  0  0
    1.6000    2.7713    0.0000 H   0  0  0  0  0  0  0  0  0  0  0  0
    2.4000   -1.3856    0.0000 O   0  0  0  0  0  0  0  0  0  0  0  0
    0.0000    0.0000    0.0000 N   0  0  0  0  0  0  0  0  0  0  0  0
   -0.8000    1.3856    0.0000 C   0  0  0  0  0  0  0  0  0  0  0  0
   -1.6000    2.7713    0.0000 H   0  0  0  0  0  0  0  0  0  0  0  0
   -2.4000    1.3856    0.0000 H   0  0  0  0  0  0  0  0  0  0  0  0
    0.0000    2.7713    0.0000 H   0  0  0  0  0  0  0  0  0  0  0  0
   -0.8000   -1.3856    0.0000 C   0  0  0  0  0  0  0  0  0  0  0  0
   -1.6000   -2.7713    0.0000 H   0  0  0  0  0  0  0  0  0  0  0  0
    0.0000   -2.7713    0.0000 H   0  0  0  0  0  0  0  0  0  0  0  0
   -2.4000   -1.3856    0.0000 H   0  0  0  0  0  0  0  0  0  0  0  0
  1  2  1  0  0  0  0
  2  3  1  0  0  0  0
  2  4  1  0  0  0  0
  2  5  1  0  0  0  0
  1  6  2  0  0  0  0
  1  7  1  0  0  0  0
  7  8  1  0  0  0  0
  8  9  1  0  0  0  0
  8 10  1  0  0  0  0
  8 11  1  0  0  0  0
  7 12  1  0  0  0  0
 12 13  1  0  0  0  0
 12 14  1  0  0  0  0
 12 15  1  0  0  0  0
M  END
> <CAS>
127-19-5

> <NAME>
N,N'-DIMETHYLACETAMIDE

> <preferred_name>
N,N-Dimethylacetamide

> <iupac>
N,N-dimethylacetamide

> <SMILES>
CC(=O)N(C)C

> <Canonical_QSARr>
CC(=O)N(C)C

> <InChI_Code_QSARr>
InChI=1S/C4H9NO/c1-4(6)5(2)3/h1-3H3

> <InChI Key_QSARr>
FXHOOIRPVKKKFG-UHFFFAOYSA-N

> <Salt_Solvent>
?

> <WS Temperature>
25

> <WS Reference>
RIDDICK,JA ET AL. (1986)

> <dsstox_substance_id>
DTXSID5020499

> <LogMolar>
1.0599

$$$$
127-79-7
  -INDIGO-01081615412D

 30 31  0  0  0  0  0  0  0  0999 V2000
    2.7712    1.6000    0.0000 N   0  0  0  0  0  0  0  0  0  0  0  0
    4.1569    0.8000    0.0000 C   0  0  0  0  0  0  0  0  0  0  0  0
    4.1569   -0.8000    0.0000 N   0  0  0  1  0  0  0  0  0  0  0  0
    5.5426   -1.6000    0.0000 C   0  0  0  0  0  0  0  0  0  0  0  0
    5.5426   -3.2000    0.0000 H   0  0  0  0  0  0  0  0  0  0  0  0
    6.9283   -0.8000    0.0000 C   0  0  0  0  0  0  0  0  0  0  0  0
    8.3138   -1.6000    0.0000 H   0  0  0  0  0  0  0  0  0  0  0  0
    6.9283    0.8000    0.0000 C   0  0  0  0  0  0  0  0  0  0  0  0
    8.3138    1.6000    0.0000 C   0  0  0  0  0  0  0  0  0  0  0  0
    9.6995    2.4000    0.0000 H   0  0  0  0  0  0  0  0  0  0  0  0
    8.3138    3.2000    0.0000 H   0  0  0  0  0  0  0  0  0  0  0  0
    9.6995    0.8000    0.0000 H   0  0  0  0  0  0  0  0  0  0  0  0
    5.5426    1.6000    0.0000 N   0  0  0  1  0  0  0  0  0  0  0  0
    1.3857    0.8000    0.0000 S   0  0  0  0  0  0  0  0  0  0  0  0
    0.0000   -0.0000    0.0000 C   0  0  0  0  0  0  0  0  0  0  0  0
   -1.3857    0.8000    0.0000 C   0  0  0  0  0  0  0  0  0  0  0  0
   -1.3857    2.4000    0.0000 H   0  0  0  0  0  0  0  0  0  0  0  0
   -2.7714   -0.0000    0.0000 C   0  0  0  0  0  0  0  0  0  0  0  0
   -4.1569    0.8000    0.0000 H   0  0  0  0  0  0  0  0  0  0  0  0
   -2.7714   -1.6000    0.0000 C   0  0  0  0  0  0  0  0  0  0  0  0
   -4.1569   -2.4000    0.0000 N   0  0  0  0  0  0  0  0  0  0  0  0
   -5.5426   -1.6000    0.0000 H   0  0  0  0  0  0  0  0  0  0  0  0
   -4.1569   -4.0000    0.0000 H   0  0  0  0  0  0  0  0  0  0  0  0
   -1.3857   -2.4000    0.0000 C   0  0  0  0  0  0  0  0  0  0  0  0
   -1.3857   -4.0000    0.0000 H   0  0  0  0  0  0  0  0  0  0  0  0
    0.0000   -1.6000    0.0000 C   0  0  0  0  0  0  0  0  0  0  0  0
    1.3857   -2.4000    0.0000 H   0  0  0  0  0  0  0  0  0  0  0  0
    2.1856   -0.5856    0.0000 O   0  0  0  0  0  0  0  0  0  0  0  0
    0.5857    2.1856    0.0000 O   0  0  0  0  0  0  0  0  0  0  0  0
    2.7712    3.2000    0.0000 H   0  0  0  0  0  0  0  0  0  0  0  0
  1  2  1  0  0  0  0
  2  3  4  0  0  0  0
  3  4  4  0  0  0  0
  4  5  1  0  0  0  0
  4  6  4  0  0  0  0
  6  7  1  0  0  0  0
  6  8  4  0  0  0  0
  8  9  1  0  0  0  0
  9 10  1  0  0  0  0
  9 11  1  0  0  0  0
  9 12  1  0  0  0  0
  8 13  4  0  0  0  0
 13  2  4  0  0  0  0
  1 14  1  0  0  0  0
 14 15  1  0  0  0  0
 15 16  4  0  0  0  0
 16 17  1  0  0  0  0
 16 18  4  0  0  0  0
 18 19  1  0  0  0  0
 18 20  4  0  0  0  0
 20 21  1  0  0  0  0
 21 22  1  0  0  0  0
 21 23  1  0  0  0  0
 20 24  4  0  0  0  0
 24 25  1  0  0  0  0
 24 26  4  0  0  0  0
 26 15  4  0  0  0  0
 26 27  1  0  0  0  0
 14 28  2  0  0  0  0
 14 29  2  0  0  0  0
  1 30  1  0  0  0  0
M  END
> <CAS>
127-79-7

> <NAME>
SULFAMERAZINE

> <preferred_name>
Sulfamerazine

> <iupac>
4-amino-N-(4-methylpyrimidin-2-yl)benzenesulfonamide

> <SMILES>
Cc1cc[n]c(NS(=O)(=O)c2ccc(N)cc2)[n]1

> <Canonical_QSARr>
Cc1cc[n]c(NS(=O)(=O)c2ccc(N)cc2)[n]1

> <InChI_Code_QSARr>
InChI=1S/C11H12N4O2S/c1-8-6-7-13-11(14-8)15-18(16,17)10-4-2-9(12)3-5-10/h2-7H,12H2,1H3,(H,13,14,15)

> <InChI Key_QSARr>
QPPBRPIAZZHUNT-UHFFFAOYSA-N

> <Salt_Solvent>
?

> <WS Temperature>
20

> <WS Reference>
YALKOWSKY,SH & DANNENFELSER,RM (1992)

> <dsstox_substance_id>
DTXSID0023612

> <LogMolar>
-3.1168

$$$$
128-37-0
  -INDIGO-01081615412D

 40 40  0  0  0  0  0  0  0  0999 V2000
   -2.7713    1.6000    0.0000 O   0  0  0  0  0  0  0  0  0  0  0  0
   -2.7713   -0.0000    0.0000 C   0  0  0  0  0  0  0  0  0  0  0  0
   -4.1570   -0.8000    0.0000 C   0  0  0  0  0  0  0  0  0  0  0  0
   -5.6605   -0.2527    0.0000 C   0  0  0  0  0  0  0  0  0  0  0  0
   -7.1640    0.2944    0.0000 C   0  0  0  0  0  0  0  0  0  0  0  0
   -8.6674    0.8417    0.0000 H   0  0  0  0  0  0  0  0  0  0  0  0
   -8.5497   -0.5055    0.0000 H   0  0  0  0  0  0  0  0  0  0  0  0
   -7.7111    1.7980    0.0000 H   0  0  0  0  0  0  0  0  0  0  0  0
   -6.2076   -1.7563    0.0000 C   0  0  0  0  0  0  0  0  0  0  0  0
   -6.4856   -3.3320    0.0000 H   0  0  0  0  0  0  0  0  0  0  0  0
   -7.7111   -2.3035    0.0000 H   0  0  0  0  0  0  0  0  0  0  0  0
   -7.5933   -0.9562    0.0000 H   0  0  0  0  0  0  0  0  0  0  0  0
   -5.1133    1.2507    0.0000 C   0  0  0  0  0  0  0  0  0  0  0  0
   -6.1417    2.4764    0.0000 H   0  0  0  0  0  0  0  0  0  0  0  0
   -6.7132    1.2507    0.0000 H   0  0  0  0  0  0  0  0  0  0  0  0
   -3.8875    0.2222    0.0000 H   0  0  0  0  0  0  0  0  0  0  0  0
   -4.1570   -2.4000    0.0000 C   0  0  0  0  0  0  0  0  0  0  0  0
   -5.3825   -3.4285    0.0000 H   0  0  0  0  0  0  0  0  0  0  0  0
   -2.7713   -3.2000    0.0000 C   0  0  0  0  0  0  0  0  0  0  0  0
   -2.7713   -4.8000    0.0000 C   0  0  0  0  0  0  0  0  0  0  0  0
   -2.7713   -6.4000    0.0000 H   0  0  0  0  0  0  0  0  0  0  0  0
   -4.1570   -5.6000    0.0000 H   0  0  0  0  0  0  0  0  0  0  0  0
   -1.3856   -5.6000    0.0000 H   0  0  0  0  0  0  0  0  0  0  0  0
   -1.3856   -2.4000    0.0000 C   0  0  0  0  0  0  0  0  0  0  0  0
   -0.0000   -3.2000    0.0000 H   0  0  0  0  0  0  0  0  0  0  0  0
   -1.3856   -0.8000    0.0000 C   0  0  0  0  0  0  0  0  0  0  0  0
   -0.0000   -0.0000    0.0000 C   0  0  0  0  0  0  0  0  0  0  0  0
    1.3857    0.8000    0.0000 C   0  0  0  0  0  0  0  0  0  0  0  0
    2.7714    1.6000    0.0000 H   0  0  0  0  0  0  0  0  0  0  0  0
    1.6634    2.3758    0.0000 H   0  0  0  0  0  0  0  0  0  0  0  0
    2.8891    0.2527    0.0000 H   0  0  0  0  0  0  0  0  0  0  0  0
    0.8000   -1.3857    0.0000 C   0  0  0  0  0  0  0  0  0  0  0  0
    1.3472   -2.8892    0.0000 H   0  0  0  0  0  0  0  0  0  0  0  0
    2.3756   -1.6635    0.0000 H   0  0  0  0  0  0  0  0  0  0  0  0
    1.8285   -0.1600    0.0000 H   0  0  0  0  0  0  0  0  0  0  0  0
   -0.7999    1.3857    0.0000 C   0  0  0  0  0  0  0  0  0  0  0  0
   -1.8285    2.6113    0.0000 H   0  0  0  0  0  0  0  0  0  0  0  0
   -0.2527    2.8891    0.0000 H   0  0  0  0  0  0  0  0  0  0  0  0
    0.7757    1.6635    0.0000 H   0  0  0  0  0  0  0  0  0  0  0  0
   -4.1570    2.4000    0.0000 H   0  0  0  0  0  0  0  0  0  0  0  0
  1  2  1  0  0  0  0
  2  3  4  0  0  0  0
  3  4  1  0  0  0  0
  4  5  1  0  0  0  0
  5  6  1  0  0  0  0
  5  7  1  0  0  0  0
  5  8  1  0  0  0  0
  4  9  1  0  0  0  0
  9 10  1  0  0  0  0
  9 11  1  0  0  0  0
  9 12  1  0  0  0  0
  4 13  1  0  0  0  0
 13 14  1  0  0  0  0
 13 15  1  0  0  0  0
 13 16  1  0  0  0  0
  3 17  4  0  0  0  0
 17 18  1  0  0  0  0
 17 19  4  0  0  0  0
 19 20  1  0  0  0  0
 20 21  1  0  0  0  0
 20 22  1  0  0  0  0
 20 23  1  0  0  0  0
 19 24  4  0  0  0  0
 24 25  1  0  0  0  0
 24 26  4  0  0  0  0
 26  2  4  0  0  0  0
 26 27  1  0  0  0  0
 27 28  1  0  0  0  0
 28 29  1  0  0  0  0
 28 30  1  0  0  0  0
 28 31  1  0  0  0  0
 27 32  1  0  0  0  0
 32 33  1  0  0  0  0
 32 34  1  0  0  0  0
 32 35  1  0  0  0  0
 27 36  1  0  0  0  0
 36 37  1  0  0  0  0
 36 38  1  0  0  0  0
 36 39  1  0  0  0  0
  1 40  1  0  0  0  0
M  END
> <CAS>
128-37-0

> <NAME>
2,6-DI-T-BUTYL-4-METHYLPHENOL (BHT)

> <preferred_name>
Butylated hydroxytoluene

> <iupac>
2,6-di-tert-butyl-4-methylphenol

> <SMILES>
Cc1cc(c(O)c(c1)C(C)(C)C)C(C)(C)C

> <Canonical_QSARr>
Cc1cc(c(O)c(c1)C(C)(C)C)C(C)(C)C

> <InChI_Code_QSARr>
InChI=1S/C15H24O/c1-10-8-11(14(2,3)4)13(16)12(9-10)15(5,6)7/h8-9,16H,1-7H3

> <InChI Key_QSARr>
NLZUEZXRPGMBCV-UHFFFAOYSA-N

> <Salt_Solvent>
?

> <WS Temperature>
25

> <WS Reference>
INUI,H ET AL. (1979A)

> <dsstox_substance_id>
DTXSID2020216

> <LogMolar>
-5.565

$$$$
129-20-4
  -INDIGO-01081615412D

 44 46  0  0  0  0  0  0  0  0999 V2000
    6.3843    0.4464    0.0000 C   0  0  0  0  0  0  0  0  0  0  0  0
    4.7884    0.3349    0.0000 C   0  0  0  0  0  0  0  0  0  0  0  0
    3.1923    0.2232    0.0000 C   0  0  0  0  0  0  0  0  0  0  0  0
    1.5961    0.1115    0.0000 C   0  0  0  0  0  0  0  0  0  0  0  0
   -0.0001    0.0000    0.0000 C   0  0  0  0  0  0  0  0  0  0  0  0
   -1.5218    0.4945    0.0000 C   0  0  0  0  0  0  0  0  0  0  0  0
   -2.0161    2.0162    0.0000 O   0  0  0  0  0  0  0  0  0  0  0  0
   -2.4622   -0.8000    0.0000 N   0  0  0  0  0  0  0  0  0  0  0  0
   -4.0623   -0.8000    0.0000 C   0  0  0  0  0  0  0  0  0  0  0  0
   -4.3399    0.7756    0.0000 C   0  0  0  0  0  0  0  0  0  0  0  0
   -3.1143    1.8042    0.0000 H   0  0  0  0  0  0  0  0  0  0  0  0
   -5.8436    1.3228    0.0000 C   0  0  0  0  0  0  0  0  0  0  0  0
   -6.1212    2.8986    0.0000 H   0  0  0  0  0  0  0  0  0  0  0  0
   -7.0692    0.2944    0.0000 C   0  0  0  0  0  0  0  0  0  0  0  0
   -8.5726    0.8417    0.0000 O   0  0  0  0  0  0  0  0  0  0  0  0
   -8.8505    2.4174    0.0000 H   0  0  0  0  0  0  0  0  0  0  0  0
   -6.7913   -1.2812    0.0000 C   0  0  0  0  0  0  0  0  0  0  0  0
   -8.0171   -2.3097    0.0000 H   0  0  0  0  0  0  0  0  0  0  0  0
   -5.2878   -1.8285    0.0000 C   0  0  0  0  0  0  0  0  0  0  0  0
   -5.5657   -3.4041    0.0000 H   0  0  0  0  0  0  0  0  0  0  0  0
   -1.5218   -2.0945    0.0000 N   0  0  0  0  0  0  0  0  0  0  0  0
   -1.7444   -3.6789    0.0000 C   0  0  0  0  0  0  0  0  0  0  0  0
   -3.2278   -4.2783    0.0000 C   0  0  0  0  0  0  0  0  0  0  0  0
   -4.4886   -3.2931    0.0000 H   0  0  0  0  0  0  0  0  0  0  0  0
   -3.4505   -5.8627    0.0000 C   0  0  0  0  0  0  0  0  0  0  0  0
   -4.9339   -6.4620    0.0000 H   0  0  0  0  0  0  0  0  0  0  0  0
   -2.1898   -6.8477    0.0000 C   0  0  0  0  0  0  0  0  0  0  0  0
   -2.4124   -8.4321    0.0000 H   0  0  0  0  0  0  0  0  0  0  0  0
   -0.7063   -6.2483    0.0000 C   0  0  0  0  0  0  0  0  0  0  0  0
    0.5547   -7.2335    0.0000 H   0  0  0  0  0  0  0  0  0  0  0  0
   -0.4837   -4.6639    0.0000 C   0  0  0  0  0  0  0  0  0  0  0  0
    1.0000   -4.0646    0.0000 H   0  0  0  0  0  0  0  0  0  0  0  0
   -0.0001   -1.6000    0.0000 C   0  0  0  0  0  0  0  0  0  0  0  0
    1.2943   -2.5405    0.0000 O   0  0  0  0  0  0  0  0  0  0  0  0
    0.3328    1.5651    0.0000 H   0  0  0  0  0  0  0  0  0  0  0  0
    1.4844    1.7077    0.0000 H   0  0  0  0  0  0  0  0  0  0  0  0
    1.7078   -1.4845    0.0000 H   0  0  0  0  0  0  0  0  0  0  0  0
    3.0805    1.8194    0.0000 H   0  0  0  0  0  0  0  0  0  0  0  0
    3.3037   -1.3730    0.0000 H   0  0  0  0  0  0  0  0  0  0  0  0
    4.6767    1.9309    0.0000 H   0  0  0  0  0  0  0  0  0  0  0  0
    4.8999   -1.2613    0.0000 H   0  0  0  0  0  0  0  0  0  0  0  0
    7.9805    0.5581    0.0000 H   0  0  0  0  0  0  0  0  0  0  0  0
    7.0857    1.8846    0.0000 H   0  0  0  0  0  0  0  0  0  0  0  0
    7.2791   -0.8800    0.0000 H   0  0  0  0  0  0  0  0  0  0  0  0
  1  2  1  0  0  0  0
  2  3  1  0  0  0  0
  3  4  1  0  0  0  0
  4  5  1  0  0  0  0
  5  6  1  0  0  0  0
  6  7  2  0  0  0  0
  6  8  1  0  0  0  0
  8  9  1  0  0  0  0
  9 10  4  0  0  0  0
 10 11  1  0  0  0  0
 10 12  4  0  0  0  0
 12 13  1  0  0  0  0
 12 14  4  0  0  0  0
 14 15  1  0  0  0  0
 15 16  1  0  0  0  0
 14 17  4  0  0  0  0
 17 18  1  0  0  0  0
 17 19  4  0  0  0  0
 19  9  4  0  0  0  0
 19 20  1  0  0  0  0
  8 21  1  0  0  0  0
 21 22  1  0  0  0  0
 22 23  4  0  0  0  0
 23 24  1  0  0  0  0
 23 25  4  0  0  0  0
 25 26  1  0  0  0  0
 25 27  4  0  0  0  0
 27 28  1  0  0  0  0
 27 29  4  0  0  0  0
 29 30  1  0  0  0  0
 29 31  4  0  0  0  0
 31 22  4  0  0  0  0
 31 32  1  0  0  0  0
 21 33  1  0  0  0  0
 33  5  1  0  0  0  0
 33 34  2  0  0  0  0
  5 35  1  0  0  0  0
  4 36  1  0  0  0  0
  4 37  1  0  0  0  0
  3 38  1  0  0  0  0
  3 39  1  0  0  0  0
  2 40  1  0  0  0  0
  2 41  1  0  0  0  0
  1 42  1  0  0  0  0
  1 43  1  0  0  0  0
  1 44  1  0  0  0  0
M  END
> <CAS>
129-20-4

> <NAME>
OXYPHENBUTAZONE

> <preferred_name>
Oxyphenbutazone

> <iupac>
4-butyl-1-(4-hydroxyphenyl)-2-phenylpyrazolidine-3,5-dione

> <SMILES>
CCCCC1C(=O)N(c2ccccc2)N(c2ccc(O)cc2)C1=O

> <Canonical_QSARr>
CCCCC1C(=O)N(c2ccccc2)N(c2ccc(O)cc2)C1=O

> <InChI_Code_QSARr>
InChI=1S/C19H20N2O3/c1-2-3-9-17-18(23)20(14-7-5-4-6-8-14)21(19(17)24)15-10-12-16(22)13-11-15/h4-8,10-13,17,22H,2-3,9H2,1H3

> <InChI Key_QSARr>
HFHZKZSRXITVMK-UHFFFAOYSA-N

> <Salt_Solvent>
?

> <WS Temperature>
30

> <WS Reference>
YALKOWSKY,SH & DANNENFELSER,RM (1992)

> <dsstox_substance_id>
DTXSID1045291

> <LogMolar>
-3.7329

$$$$
130-16-5
  -INDIGO-01081615412D

 18 19  0  0  0  0  0  0  0  0999 V2000
    3.2001    2.7713    0.0000 O   0  0  0  0  0  0  0  0  0  0  0  0
    2.4000    1.3856    0.0000 C   0  0  0  0  0  0  0  0  0  0  0  0
    0.8000    1.3856    0.0000 C   0  0  0  0  0  0  0  0  0  0  0  0
    0.0000    2.7713    0.0000 N   0  0  0  1  0  0  0  0  0  0  0  0
   -1.6000    2.7713    0.0000 C   0  0  0  0  0  0  0  0  0  0  0  0
   -2.4001    1.3856    0.0000 C   0  0  0  0  0  0  0  0  0  0  0  0
   -1.6000   -0.0000    0.0000 C   0  0  0  0  0  0  0  0  0  0  0  0
   -2.4001   -1.3856    0.0000 H   0  0  0  0  0  0  0  0  0  0  0  0
    0.0000   -0.0000    0.0000 C   0  0  0  0  0  0  0  0  0  0  0  0
    0.8000   -1.3856    0.0000 C   0  0  0  0  0  0  0  0  0  0  0  0
    0.0000   -2.7713    0.0000 Cl  0  0  0  0  0  0  0  0  0  0  0  0
    2.4000   -1.3856    0.0000 C   0  0  0  0  0  0  0  0  0  0  0  0
    3.2001   -2.7713    0.0000 H   0  0  0  0  0  0  0  0  0  0  0  0
    3.2001   -0.0000    0.0000 C   0  0  0  0  0  0  0  0  0  0  0  0
    4.8000   -0.0000    0.0000 H   0  0  0  0  0  0  0  0  0  0  0  0
   -4.0000    1.3856    0.0000 H   0  0  0  0  0  0  0  0  0  0  0  0
   -2.4001    4.1569    0.0000 H   0  0  0  0  0  0  0  0  0  0  0  0
    4.8000    2.7713    0.0000 H   0  0  0  0  0  0  0  0  0  0  0  0
  1  2  1  0  0  0  0
  2  3  4  0  0  0  0
  3  4  4  0  0  0  0
  4  5  4  0  0  0  0
  5  6  4  0  0  0  0
  6  7  4  0  0  0  0
  7  8  1  0  0  0  0
  7  9  4  0  0  0  0
  9  3  4  0  0  0  0
  9 10  4  0  0  0  0
 10 11  1  0  0  0  0
 10 12  4  0  0  0  0
 12 13  1  0  0  0  0
 12 14  4  0  0  0  0
 14  2  4  0  0  0  0
 14 15  1  0  0  0  0
  6 16  1  0  0  0  0
  5 17  1  0  0  0  0
  1 18  1  0  0  0  0
M  END
> <CAS>
130-16-5

> <NAME>
8-QUINOLINOL,5-CHLORO-

> <preferred_name>
Cloxyquin

> <iupac>
5-chloroquinolin-8-ol

> <SMILES>
Oc1ccc(Cl)c2ccc[n]c21

> <Canonical_QSARr>
Oc1ccc(Cl)c2ccc[n]c21

> <InChI_Code_QSARr>
InChI=1S/C9H6ClNO/c10-7-3-4-8(12)9-6(7)2-1-5-11-9/h1-5,12H

> <InChI Key_QSARr>
CTQMJYWDVABFRZ-UHFFFAOYSA-N

> <Salt_Solvent>
?

> <WS Temperature>
25

> <WS Reference>
JONES,CJ ET AL. (1978)

> <dsstox_substance_id>
DTXSID4045973

> <LogMolar>
-3.9756

$$$$
132-53-6
  -INDIGO-01081615412D

 20 21  0  0  0  0  0  0  0  0999 V2000
   -0.0001    0.0000    0.0000 C   0  0  0  0  0  0  0  0  0  0  0  0
   -0.8000    1.3856    0.0000 C   0  0  0  0  0  0  0  0  0  0  0  0
   -0.0001    2.7713    0.0000 H   0  0  0  0  0  0  0  0  0  0  0  0
   -2.4000    1.3856    0.0000 C   0  0  0  0  0  0  0  0  0  0  0  0
   -3.2001    2.7713    0.0000 H   0  0  0  0  0  0  0  0  0  0  0  0
   -3.1999    0.0000    0.0000 C   0  0  0  0  0  0  0  0  0  0  0  0
   -4.8000    0.0000    0.0000 H   0  0  0  0  0  0  0  0  0  0  0  0
   -2.4000   -1.3856    0.0000 C   0  0  0  0  0  0  0  0  0  0  0  0
   -3.2001   -2.7713    0.0000 H   0  0  0  0  0  0  0  0  0  0  0  0
   -0.8000   -1.3856    0.0000 C   0  0  0  0  0  0  0  0  0  0  0  0
    0.0001   -2.7713    0.0000 C   0  0  0  0  0  0  0  0  0  0  0  0
   -0.8000   -4.1569    0.0000 H   0  0  0  0  0  0  0  0  0  0  0  0
    1.6000   -2.7713    0.0000 C   0  0  0  0  0  0  0  0  0  0  0  0
    2.4000   -4.1569    0.0000 H   0  0  0  0  0  0  0  0  0  0  0  0
    2.4000   -1.3856    0.0000 C   0  0  0  0  0  0  0  0  0  0  0  0
    4.0000   -1.3856    0.0000 N   0  0  0  0  0  0  0  0  0  0  0  0
    4.8000   -2.7713    0.0000 O   0  0  0  0  0  0  0  0  0  0  0  0
    1.6000    0.0000    0.0000 C   0  0  0  0  0  0  0  0  0  0  0  0
    2.4000    1.3856    0.0000 O   0  0  0  0  0  0  0  0  0  0  0  0
    4.0000    1.3856    0.0000 H   0  0  0  0  0  0  0  0  0  0  0  0
  1  2  4  0  0  0  0
  2  3  1  0  0  0  0
  2  4  4  0  0  0  0
  4  5  1  0  0  0  0
  4  6  4  0  0  0  0
  6  7  1  0  0  0  0
  6  8  4  0  0  0  0
  8  9  1  0  0  0  0
  8 10  4  0  0  0  0
 10  1  4  0  0  0  0
 10 11  4  0  0  0  0
 11 12  1  0  0  0  0
 11 13  4  0  0  0  0
 13 14  1  0  0  0  0
 13 15  4  0  0  0  0
 15 16  1  0  0  0  0
 16 17  2  0  0  0  0
 15 18  4  0  0  0  0
 18  1  4  0  0  0  0
 18 19  1  0  0  0  0
 19 20  1  0  0  0  0
M  END
> <CAS>
132-53-6

> <NAME>
2-NITROSO-1-NAPHTHOL

> <preferred_name>
1-Naphthalenol, 2-nitroso-

> <iupac>
2-nitrosonaphthalen-1-ol

> <SMILES>
Oc1c2ccccc2ccc1N=O

> <Canonical_QSARr>
Oc1c2ccccc2ccc1N=O

> <InChI_Code_QSARr>
InChI=1S/C10H7NO2/c12-10-8-4-2-1-3-7(8)5-6-9(10)11-13/h1-6,12H

> <InChI Key_QSARr>
SYUYTOYKQOAVDW-UHFFFAOYSA-N

> <Salt_Solvent>
?

> <WS Temperature>
25

> <WS Reference>
GREEN.FJ (1990)

> <dsstox_substance_id>
DTXSID4059625

> <LogMolar>
-2.5395

$$$$
132-66-1
  -INDIGO-01081615412D

 35 37  0  0  0  0  0  0  0  0999 V2000
   -7.2060   -2.3757    0.0000 C   0  0  0  0  0  0  0  0  0  0  0  0
   -8.7095   -2.9229    0.0000 O   0  0  0  0  0  0  0  0  0  0  0  0
   -8.9874   -4.4987    0.0000 H   0  0  0  0  0  0  0  0  0  0  0  0
   -6.9282   -0.8000    0.0000 C   0  0  0  0  0  0  0  0  0  0  0  0
   -8.3139   -0.0000    0.0000 C   0  0  0  0  0  0  0  0  0  0  0  0
   -9.6995   -0.8000    0.0000 H   0  0  0  0  0  0  0  0  0  0  0  0
   -8.3139    1.6000    0.0000 C   0  0  0  0  0  0  0  0  0  0  0  0
   -9.6995    2.4001    0.0000 H   0  0  0  0  0  0  0  0  0  0  0  0
   -6.9282    2.4001    0.0000 C   0  0  0  0  0  0  0  0  0  0  0  0
   -6.9282    4.0000    0.0000 H   0  0  0  0  0  0  0  0  0  0  0  0
   -5.5427    1.6000    0.0000 C   0  0  0  0  0  0  0  0  0  0  0  0
   -4.1569    2.4001    0.0000 H   0  0  0  0  0  0  0  0  0  0  0  0
   -5.5425   -0.0000    0.0000 C   0  0  0  0  0  0  0  0  0  0  0  0
   -4.1569   -0.8000    0.0000 C   0  0  0  0  0  0  0  0  0  0  0  0
   -2.7714   -0.0000    0.0000 N   0  0  0  0  0  0  0  0  0  0  0  0
   -1.3856   -0.8000    0.0000 C   0  0  0  0  0  0  0  0  0  0  0  0
   -1.3856   -2.4000    0.0000 C   0  0  0  0  0  0  0  0  0  0  0  0
   -2.7712   -3.2001    0.0000 H   0  0  0  0  0  0  0  0  0  0  0  0
    0.0001   -3.2001    0.0000 C   0  0  0  0  0  0  0  0  0  0  0  0
    0.0001   -4.8000    0.0000 H   0  0  0  0  0  0  0  0  0  0  0  0
    1.3856   -2.4000    0.0000 C   0  0  0  0  0  0  0  0  0  0  0  0
    2.7714   -3.2001    0.0000 H   0  0  0  0  0  0  0  0  0  0  0  0
    1.3856   -0.8000    0.0000 C   0  0  0  0  0  0  0  0  0  0  0  0
    2.7714   -0.0000    0.0000 C   0  0  0  0  0  0  0  0  0  0  0  0
    2.7714    1.6000    0.0000 C   0  0  0  0  0  0  0  0  0  0  0  0
    1.3856    2.4001    0.0000 C   0  0  0  0  0  0  0  0  0  0  0  0
    0.0001    1.6000    0.0000 C   0  0  0  0  0  0  0  0  0  0  0  0
   -1.3856    2.4001    0.0000 H   0  0  0  0  0  0  0  0  0  0  0  0
    0.0001   -0.0000    0.0000 C   0  0  0  0  0  0  0  0  0  0  0  0
    1.3856    4.0000    0.0000 H   0  0  0  0  0  0  0  0  0  0  0  0
    4.1569    2.4001    0.0000 H   0  0  0  0  0  0  0  0  0  0  0  0
    4.1569   -0.8000    0.0000 H   0  0  0  0  0  0  0  0  0  0  0  0
   -2.7714    1.6000    0.0000 H   0  0  0  0  0  0  0  0  0  0  0  0
   -4.1569   -2.4000    0.0000 O   0  0  0  0  0  0  0  0  0  0  0  0
   -5.9803   -3.4042    0.0000 O   0  0  0  0  0  0  0  0  0  0  0  0
  1  2  1  0  0  0  0
  2  3  1  0  0  0  0
  1  4  1  0  0  0  0
  4  5  4  0  0  0  0
  5  6  1  0  0  0  0
  5  7  4  0  0  0  0
  7  8  1  0  0  0  0
  7  9  4  0  0  0  0
  9 10  1  0  0  0  0
  9 11  4  0  0  0  0
 11 12  1  0  0  0  0
 11 13  4  0  0  0  0
 13  4  4  0  0  0  0
 13 14  1  0  0  0  0
 14 15  1  0  0  0  0
 15 16  1  0  0  0  0
 16 17  4  0  0  0  0
 17 18  1  0  0  0  0
 17 19  4  0  0  0  0
 19 20  1  0  0  0  0
 19 21  4  0  0  0  0
 21 22  1  0  0  0  0
 21 23  4  0  0  0  0
 23 24  4  0  0  0  0
 24 25  4  0  0  0  0
 25 26  4  0  0  0  0
 26 27  4  0  0  0  0
 27 28  1  0  0  0  0
 27 29  4  0  0  0  0
 29 16  4  0  0  0  0
 29 23  4  0  0  0  0
 26 30  1  0  0  0  0
 25 31  1  0  0  0  0
 24 32  1  0  0  0  0
 15 33  1  0  0  0  0
 14 34  2  0  0  0  0
  1 35  2  0  0  0  0
M  END
> <CAS>
132-66-1

> <NAME>
NPA (NAPTALAM)

> <preferred_name>
Naptalam

> <iupac>
2-(naphthalen-1-ylcarbamoyl)benzoic acid

> <SMILES>
OC(=O)c1ccccc1C(=O)Nc1cccc2ccccc21

> <Canonical_QSARr>
OC(=O)c1ccccc1C(=O)Nc1cccc2ccccc21

> <InChI_Code_QSARr>
InChI=1S/C18H13NO3/c20-17(14-9-3-4-10-15(14)18(21)22)19-16-11-5-7-12-6-1-2-8-13(12)16/h1-11H,(H,19,20)(H,21,22)

> <InChI Key_QSARr>
JXTHEWSKYLZVJC-UHFFFAOYSA-N

> <Salt_Solvent>
?

> <WS Temperature>
25

> <WS Reference>
YALKOWSKY,SH & DANNENFELSER,RM (1992)

> <dsstox_substance_id>
DTXSID6032437

> <LogMolar>
-3.1633

$$$$
133-11-9
  -INDIGO-01081615412D

 28 29  0  0  0  0  0  0  0  0999 V2000
    4.8000    2.7713    0.0000 C   0  0  0  0  0  0  0  0  0  0  0  0
    4.0000    1.3856    0.0000 C   0  0  0  0  0  0  0  0  0  0  0  0
    2.3999    1.3856    0.0000 O   0  0  0  0  0  0  0  0  0  0  0  0
    1.6001    0.0001    0.0000 C   0  0  0  0  0  0  0  0  0  0  0  0
    0.0000    0.0001    0.0000 C   0  0  0  0  0  0  0  0  0  0  0  0
   -0.8000    1.3856    0.0000 C   0  0  0  0  0  0  0  0  0  0  0  0
    0.0000    2.7713    0.0000 H   0  0  0  0  0  0  0  0  0  0  0  0
   -2.4001    1.3856    0.0000 C   0  0  0  0  0  0  0  0  0  0  0  0
   -3.2001    2.7713    0.0000 H   0  0  0  0  0  0  0  0  0  0  0  0
   -3.2001    0.0001    0.0000 C   0  0  0  0  0  0  0  0  0  0  0  0
   -4.8000    0.0001    0.0000 N   0  0  0  0  0  0  0  0  0  0  0  0
   -5.6000    1.3856    0.0000 H   0  0  0  0  0  0  0  0  0  0  0  0
   -5.6000   -1.3856    0.0000 H   0  0  0  0  0  0  0  0  0  0  0  0
   -2.4001   -1.3856    0.0000 C   0  0  0  0  0  0  0  0  0  0  0  0
   -3.2001   -2.7712    0.0000 H   0  0  0  0  0  0  0  0  0  0  0  0
   -0.8000   -1.3856    0.0000 C   0  0  0  0  0  0  0  0  0  0  0  0
    0.0000   -2.7712    0.0000 O   0  0  0  0  0  0  0  0  0  0  0  0
   -0.8000   -4.1569    0.0000 H   0  0  0  0  0  0  0  0  0  0  0  0
    2.3999   -1.3856    0.0000 O   0  0  0  0  0  0  0  0  0  0  0  0
    4.8000    0.0001    0.0000 C   0  0  0  0  0  0  0  0  0  0  0  0
    4.0000   -1.3856    0.0000 H   0  0  0  0  0  0  0  0  0  0  0  0
    6.4001    0.0001    0.0000 C   0  0  0  0  0  0  0  0  0  0  0  0
    7.1999   -1.3856    0.0000 H   0  0  0  0  0  0  0  0  0  0  0  0
    7.1999    1.3856    0.0000 C   0  0  0  0  0  0  0  0  0  0  0  0
    8.8000    1.3856    0.0000 H   0  0  0  0  0  0  0  0  0  0  0  0
    6.4001    2.7713    0.0000 C   0  0  0  0  0  0  0  0  0  0  0  0
    7.1999    4.1569    0.0000 H   0  0  0  0  0  0  0  0  0  0  0  0
    4.0000    4.1569    0.0000 H   0  0  0  0  0  0  0  0  0  0  0  0
  1  2  4  0  0  0  0
  2  3  1  0  0  0  0
  3  4  1  0  0  0  0
  4  5  1  0  0  0  0
  5  6  4  0  0  0  0
  6  7  1  0  0  0  0
  6  8  4  0  0  0  0
  8  9  1  0  0  0  0
  8 10  4  0  0  0  0
 10 11  1  0  0  0  0
 11 12  1  0  0  0  0
 11 13  1  0  0  0  0
 10 14  4  0  0  0  0
 14 15  1  0  0  0  0
 14 16  4  0  0  0  0
 16  5  4  0  0  0  0
 16 17  1  0  0  0  0
 17 18  1  0  0  0  0
  4 19  2  0  0  0  0
  2 20  4  0  0  0  0
 20 21  1  0  0  0  0
 20 22  4  0  0  0  0
 22 23  1  0  0  0  0
 22 24  4  0  0  0  0
 24 25  1  0  0  0  0
 24 26  4  0  0  0  0
 26  1  4  0  0  0  0
 26 27  1  0  0  0  0
  1 28  1  0  0  0  0
M  END
> <CAS>
133-11-9

> <NAME>
PHENYL-4-AMINOSALICYLATE

> <preferred_name>
Phenyl 4-aminosalicylate

> <iupac>
phenyl 4-amino-2-hydroxybenzoate

> <SMILES>
Nc1cc(O)c(cc1)C(=O)Oc1ccccc1

> <Canonical_QSARr>
Nc1cc(O)c(cc1)C(=O)Oc1ccccc1

> <InChI_Code_QSARr>
InChI=1S/C13H11NO3/c14-9-6-7-11(12(15)8-9)13(16)17-10-4-2-1-3-5-10/h1-8,15H,14H2

> <InChI Key_QSARr>
DNVVZWSVACQWJE-UHFFFAOYSA-N

> <Salt_Solvent>
?

> <WS Temperature>
25

> <WS Reference>
MERCK INDEX (1989)

> <dsstox_substance_id>
DTXSID7021994

> <LogMolar>
-4.5152

$$$$
133-67-5
  -INDIGO-01081615412D

 28 29  0  0  0  0  0  0  0  0999 V2000
    5.6000    1.3857    0.0000 C   0  0  0  0  0  0  0  0  0  0  0  0
    4.8000    0.0000    0.0000 C   0  0  0  0  0  0  0  0  0  0  0  0
    5.6000   -1.3856    0.0000 H   0  0  0  0  0  0  0  0  0  0  0  0
    3.2000    0.0000    0.0000 C   0  0  0  0  0  0  0  0  0  0  0  0
    2.4000   -1.3856    0.0000 S   0  0  0  0  0  0  0  0  0  0  0  0
    0.8000   -1.3856    0.0000 N   0  0  0  0  0  0  0  0  0  0  0  0
    0.0000    0.0000    0.0000 C   0  0  0  0  0  0  0  0  0  0  0  0
    0.8000    1.3857    0.0000 N   0  0  0  0  0  0  0  0  0  0  0  0
    0.0000    2.7713    0.0000 H   0  0  0  0  0  0  0  0  0  0  0  0
    2.4000    1.3857    0.0000 C   0  0  0  0  0  0  0  0  0  0  0  0
    3.2000    2.7713    0.0000 C   0  0  0  0  0  0  0  0  0  0  0  0
    2.4000    4.1569    0.0000 H   0  0  0  0  0  0  0  0  0  0  0  0
    4.8000    2.7713    0.0000 C   0  0  0  0  0  0  0  0  0  0  0  0
    5.6000    4.1569    0.0000 Cl  0  0  0  0  0  0  0  0  0  0  0  0
   -1.2256   -1.0285    0.0000 C   0  0  0  0  0  0  0  0  0  0  0  0
   -2.4513   -2.0569    0.0000 Cl  0  0  0  0  0  0  0  0  0  0  0  0
   -2.7292   -0.4813    0.0000 Cl  0  0  0  0  0  0  0  0  0  0  0  0
   -0.9478   -2.6042    0.0000 H   0  0  0  0  0  0  0  0  0  0  0  0
   -1.2256    1.0284    0.0000 H   0  0  0  0  0  0  0  0  0  0  0  0
    0.0000   -2.7713    0.0000 H   0  0  0  0  0  0  0  0  0  0  0  0
    2.1222   -2.9613    0.0000 O   0  0  0  0  0  0  0  0  0  0  0  0
    3.9036   -1.9328    0.0000 O   0  0  0  0  0  0  0  0  0  0  0  0
    7.2000    1.3857    0.0000 S   0  0  0  0  0  0  0  0  0  0  0  0
    8.8001    1.3857    0.0000 N   0  0  0  0  0  0  0  0  0  0  0  0
    9.6000    2.7713    0.0000 H   0  0  0  0  0  0  0  0  0  0  0  0
    9.6000    0.0000    0.0000 H   0  0  0  0  0  0  0  0  0  0  0  0
    7.2000    2.9856    0.0000 O   0  0  0  0  0  0  0  0  0  0  0  0
    7.2000   -0.2144    0.0000 O   0  0  0  0  0  0  0  0  0  0  0  0
  1  2  4  0  0  0  0
  2  3  1  0  0  0  0
  2  4  4  0  0  0  0
  4  5  1  0  0  0  0
  5  6  1  0  0  0  0
  6  7  1  0  0  0  0
  7  8  1  0  0  0  0
  8  9  1  0  0  0  0
  8 10  1  0  0  0  0
 10  4  4  0  0  0  0
 10 11  4  0  0  0  0
 11 12  1  0  0  0  0
 11 13  4  0  0  0  0
 13  1  4  0  0  0  0
 13 14  1  0  0  0  0
  7 15  1  0  0  0  0
 15 16  1  0  0  0  0
 15 17  1  0  0  0  0
 15 18  1  0  0  0  0
  7 19  1  0  0  0  0
  6 20  1  0  0  0  0
  5 21  2  0  0  0  0
  5 22  2  0  0  0  0
  1 23  1  0  0  0  0
 23 24  1  0  0  0  0
 24 25  1  0  0  0  0
 24 26  1  0  0  0  0
 23 27  2  0  0  0  0
 23 28  2  0  0  0  0
M  END
> <CAS>
133-67-5

> <NAME>
TRICHLORMETHIAZIDE

> <preferred_name>
Trichlormethiazide

> <iupac>
6-chloro-3-(dichloromethyl)-3,4-dihydro-2H-1,2,4-benzothiadiazine-7-sulfonamide 1,1-dioxide

> <SMILES>
NS(=O)(=O)c1cc2c(cc1Cl)NC(NS2(=O)=O)C(Cl)Cl

> <Canonical_QSARr>
NS(=O)(=O)c1cc2c(cc1Cl)NC(NS2(=O)=O)C(Cl)Cl

> <InChI_Code_QSARr>
InChI=1S/C8H8Cl3N3O4S2/c9-3-1-4-6(2-5(3)19(12,15)16)20(17,18)14-8(13-4)7(10)11/h1-2,7-8,13-14H,(H2,12,15,16)

> <InChI Key_QSARr>
LMJSLTNSBFUCMU-UHFFFAOYSA-N

> <Salt_Solvent>
?

> <WS Temperature>
25

> <WS Reference>
MERCK INDEX (1989)

> <dsstox_substance_id>
DTXSID7023699

> <LogMolar>
-2.6774

$$$$
134-32-7
  -INDIGO-01081615412D

 20 21  0  0  0  0  0  0  0  0999 V2000
    0.8000    1.3856    0.0000 C   0  0  0  0  0  0  0  0  0  0  0  0
    0.0000    2.7713    0.0000 C   0  0  0  0  0  0  0  0  0  0  0  0
    0.8000    4.1569    0.0000 H   0  0  0  0  0  0  0  0  0  0  0  0
   -1.6000    2.7713    0.0000 C   0  0  0  0  0  0  0  0  0  0  0  0
   -2.4001    4.1569    0.0000 H   0  0  0  0  0  0  0  0  0  0  0  0
   -2.4001    1.3856    0.0000 C   0  0  0  0  0  0  0  0  0  0  0  0
   -4.0000    1.3856    0.0000 H   0  0  0  0  0  0  0  0  0  0  0  0
   -1.6000    0.0000    0.0000 C   0  0  0  0  0  0  0  0  0  0  0  0
   -2.4001   -1.3856    0.0000 N   0  0  0  0  0  0  0  0  0  0  0  0
   -4.0000   -1.3856    0.0000 H   0  0  0  0  0  0  0  0  0  0  0  0
   -1.6000   -2.7713    0.0000 H   0  0  0  0  0  0  0  0  0  0  0  0
    0.0000    0.0000    0.0000 C   0  0  0  0  0  0  0  0  0  0  0  0
    0.8000   -1.3856    0.0000 C   0  0  0  0  0  0  0  0  0  0  0  0
    0.0000   -2.7713    0.0000 H   0  0  0  0  0  0  0  0  0  0  0  0
    2.4000   -1.3856    0.0000 C   0  0  0  0  0  0  0  0  0  0  0  0
    3.2001   -2.7713    0.0000 H   0  0  0  0  0  0  0  0  0  0  0  0
    3.2001    0.0000    0.0000 C   0  0  0  0  0  0  0  0  0  0  0  0
    4.8000    0.0000    0.0000 H   0  0  0  0  0  0  0  0  0  0  0  0
    2.4000    1.3856    0.0000 C   0  0  0  0  0  0  0  0  0  0  0  0
    3.2001    2.7713    0.0000 H   0  0  0  0  0  0  0  0  0  0  0  0
  1  2  4  0  0  0  0
  2  3  1  0  0  0  0
  2  4  4  0  0  0  0
  4  5  1  0  0  0  0
  4  6  4  0  0  0  0
  6  7  1  0  0  0  0
  6  8  4  0  0  0  0
  8  9  1  0  0  0  0
  9 10  1  0  0  0  0
  9 11  1  0  0  0  0
  8 12  4  0  0  0  0
 12  1  4  0  0  0  0
 12 13  4  0  0  0  0
 13 14  1  0  0  0  0
 13 15  4  0  0  0  0
 15 16  1  0  0  0  0
 15 17  4  0  0  0  0
 17 18  1  0  0  0  0
 17 19  4  0  0  0  0
 19  1  4  0  0  0  0
 19 20  1  0  0  0  0
M  END
> <CAS>
134-32-7

> <NAME>
1-NAPHTHYLAMINE

> <preferred_name>
1-Naphthylamine

> <iupac>
naphthalen-1-amine

> <SMILES>
Nc1cccc2ccccc21

> <Canonical_QSARr>
Nc1cccc2ccccc21

> <InChI_Code_QSARr>
InChI=1S/C10H9N/c11-10-7-3-5-8-4-1-2-6-9(8)10/h1-7H,11H2

> <InChI Key_QSARr>
RUFPHBVGCFYCNW-UHFFFAOYSA-N

> <Salt_Solvent>
?

> <WS Temperature>
20

> <WS Reference>
DRAGUN,J & HELLING,CS (1985)

> <dsstox_substance_id>
DTXSID7020920

> <LogMolar>
-1.9255

$$$$
135-19-3
  -INDIGO-01081615412D

 19 20  0  0  0  0  0  0  0  0999 V2000
    0.0001   -0.0000    0.0000 C   0  0  0  0  0  0  0  0  0  0  0  0
   -1.3857    0.8000    0.0000 C   0  0  0  0  0  0  0  0  0  0  0  0
   -1.3857    2.4000    0.0000 H   0  0  0  0  0  0  0  0  0  0  0  0
   -2.7713   -0.0000    0.0000 C   0  0  0  0  0  0  0  0  0  0  0  0
   -4.1569    0.8000    0.0000 O   0  0  0  0  0  0  0  0  0  0  0  0
   -5.5426   -0.0000    0.0000 H   0  0  0  0  0  0  0  0  0  0  0  0
   -2.7713   -1.6000    0.0000 C   0  0  0  0  0  0  0  0  0  0  0  0
   -4.1569   -2.4000    0.0000 H   0  0  0  0  0  0  0  0  0  0  0  0
   -1.3857   -2.4000    0.0000 C   0  0  0  0  0  0  0  0  0  0  0  0
   -1.3857   -4.0000    0.0000 H   0  0  0  0  0  0  0  0  0  0  0  0
    0.0001   -1.6000    0.0000 C   0  0  0  0  0  0  0  0  0  0  0  0
    1.3857   -2.4000    0.0000 C   0  0  0  0  0  0  0  0  0  0  0  0
    1.3857   -4.0000    0.0000 H   0  0  0  0  0  0  0  0  0  0  0  0
    2.7713   -1.6000    0.0000 C   0  0  0  0  0  0  0  0  0  0  0  0
    4.1569   -2.4000    0.0000 H   0  0  0  0  0  0  0  0  0  0  0  0
    2.7713   -0.0000    0.0000 C   0  0  0  0  0  0  0  0  0  0  0  0
    4.1569    0.8000    0.0000 H   0  0  0  0  0  0  0  0  0  0  0  0
    1.3857    0.8000    0.0000 C   0  0  0  0  0  0  0  0  0  0  0  0
    1.3857    2.4000    0.0000 H   0  0  0  0  0  0  0  0  0  0  0  0
  1  2  4  0  0  0  0
  2  3  1  0  0  0  0
  2  4  4  0  0  0  0
  4  5  1  0  0  0  0
  5  6  1  0  0  0  0
  4  7  4  0  0  0  0
  7  8  1  0  0  0  0
  7  9  4  0  0  0  0
  9 10  1  0  0  0  0
  9 11  4  0  0  0  0
 11  1  4  0  0  0  0
 11 12  4  0  0  0  0
 12 13  1  0  0  0  0
 12 14  4  0  0  0  0
 14 15  1  0  0  0  0
 14 16  4  0  0  0  0
 16 17  1  0  0  0  0
 16 18  4  0  0  0  0
 18  1  4  0  0  0  0
 18 19  1  0  0  0  0
M  END
> <CAS>
135-19-3

> <NAME>
2-NAPHTHOL

> <preferred_name>
2-Naphthalenol

> <iupac>
naphthalen-2-ol

> <SMILES>
Oc1cc2ccccc2cc1

> <Canonical_QSARr>
Oc1cc2ccccc2cc1

> <InChI_Code_QSARr>
InChI=1S/C10H8O/c11-10-6-5-8-3-1-2-4-9(8)7-10/h1-7,11H

> <InChI Key_QSARr>
JWAZRIHNYRIHIV-UHFFFAOYSA-N

> <Salt_Solvent>
?

> <WS Temperature>
25

> <WS Reference>
YALKOWSKY,SH & DANNENFELSER,RM (1992)

> <dsstox_substance_id>
DTXSID5027061

> <LogMolar>
-2.2809

$$$$
136-60-7
  -INDIGO-01081615412D

 27 27  0  0  0  0  0  0  0  0999 V2000
   -3.9999    1.3857    0.0000 C   0  0  0  0  0  0  0  0  0  0  0  0
   -3.2000    0.0000    0.0000 O   0  0  0  0  0  0  0  0  0  0  0  0
   -1.6001    0.0000    0.0000 C   0  0  0  0  0  0  0  0  0  0  0  0
    0.0001    0.0000    0.0000 C   0  0  0  0  0  0  0  0  0  0  0  0
    1.6000    0.0000    0.0000 C   0  0  0  0  0  0  0  0  0  0  0  0
    3.2001    0.0000    0.0000 C   0  0  0  0  0  0  0  0  0  0  0  0
    4.8000    0.0000    0.0000 H   0  0  0  0  0  0  0  0  0  0  0  0
    4.0000   -1.3857    0.0000 H   0  0  0  0  0  0  0  0  0  0  0  0
    4.0000    1.3857    0.0000 H   0  0  0  0  0  0  0  0  0  0  0  0
    1.6000   -1.6000    0.0000 H   0  0  0  0  0  0  0  0  0  0  0  0
    1.6000    1.6000    0.0000 H   0  0  0  0  0  0  0  0  0  0  0  0
    0.0001   -1.6000    0.0000 H   0  0  0  0  0  0  0  0  0  0  0  0
    0.0001    1.6000    0.0000 H   0  0  0  0  0  0  0  0  0  0  0  0
   -1.6001   -1.6000    0.0000 H   0  0  0  0  0  0  0  0  0  0  0  0
   -1.6001    1.6000    0.0000 H   0  0  0  0  0  0  0  0  0  0  0  0
   -5.6001    1.3857    0.0000 C   0  0  0  0  0  0  0  0  0  0  0  0
   -6.4000    2.7713    0.0000 C   0  0  0  0  0  0  0  0  0  0  0  0
   -5.6001    4.1569    0.0000 H   0  0  0  0  0  0  0  0  0  0  0  0
   -7.9999    2.7713    0.0000 C   0  0  0  0  0  0  0  0  0  0  0  0
   -8.8001    4.1569    0.0000 H   0  0  0  0  0  0  0  0  0  0  0  0
   -8.8001    1.3857    0.0000 C   0  0  0  0  0  0  0  0  0  0  0  0
  -10.4000    1.3857    0.0000 H   0  0  0  0  0  0  0  0  0  0  0  0
   -7.9999    0.0000    0.0000 C   0  0  0  0  0  0  0  0  0  0  0  0
   -8.8001   -1.3857    0.0000 H   0  0  0  0  0  0  0  0  0  0  0  0
   -6.4000    0.0000    0.0000 C   0  0  0  0  0  0  0  0  0  0  0  0
   -5.6001   -1.3857    0.0000 H   0  0  0  0  0  0  0  0  0  0  0  0
   -3.2000    2.7713    0.0000 O   0  0  0  0  0  0  0  0  0  0  0  0
  1  2  1  0  0  0  0
  2  3  1  0  0  0  0
  3  4  1  0  0  0  0
  4  5  1  0  0  0  0
  5  6  1  0  0  0  0
  6  7  1  0  0  0  0
  6  8  1  0  0  0  0
  6  9  1  0  0  0  0
  5 10  1  0  0  0  0
  5 11  1  0  0  0  0
  4 12  1  0  0  0  0
  4 13  1  0  0  0  0
  3 14  1  0  0  0  0
  3 15  1  0  0  0  0
  1 16  1  0  0  0  0
 16 17  4  0  0  0  0
 17 18  1  0  0  0  0
 17 19  4  0  0  0  0
 19 20  1  0  0  0  0
 19 21  4  0  0  0  0
 21 22  1  0  0  0  0
 21 23  4  0  0  0  0
 23 24  1  0  0  0  0
 23 25  4  0  0  0  0
 25 16  4  0  0  0  0
 25 26  1  0  0  0  0
  1 27  2  0  0  0  0
M  END
> <CAS>
136-60-7

> <NAME>
BUTYL BENZOATE

> <preferred_name>
Butyl benzoate

> <iupac>
butyl benzoate

> <SMILES>
CCCCOC(=O)c1ccccc1

> <Canonical_QSARr>
CCCCOC(=O)c1ccccc1

> <InChI_Code_QSARr>
InChI=1S/C11H14O2/c1-2-3-9-13-11(12)10-7-5-4-6-8-10/h4-8H,2-3,9H2,1H3

> <InChI Key_QSARr>
XSIFPSYPOVKYCO-UHFFFAOYSA-N

> <Salt_Solvent>
?

> <WS Temperature>
25

> <WS Reference>
HAAS,JM ET AL. (1975)

> <dsstox_substance_id>
DTXSID8040694

> <LogMolar>
-3.4801

$$$$
137-32-6
  -INDIGO-01081615412D

 18 17  0  0  0  0  0  0  0  0999 V2000
   -1.5757   -0.2779    0.0000 C   0  0  0  0  0  0  0  0  0  0  0  0
   -3.1514   -0.5557    0.0000 O   0  0  0  0  0  0  0  0  0  0  0  0
   -3.6986   -2.0592    0.0000 H   0  0  0  0  0  0  0  0  0  0  0  0
    0.0000    0.0000    0.0000 C   0  0  0  0  0  0  0  0  0  0  0  0
    0.0000    1.6000    0.0000 C   0  0  0  0  0  0  0  0  0  0  0  0
    0.0000    3.2000    0.0000 H   0  0  0  0  0  0  0  0  0  0  0  0
   -1.3857    2.4000    0.0000 H   0  0  0  0  0  0  0  0  0  0  0  0
    1.3856    2.4000    0.0000 H   0  0  0  0  0  0  0  0  0  0  0  0
    1.5758   -0.2779    0.0000 C   0  0  0  0  0  0  0  0  0  0  0  0
    3.1513   -0.5557    0.0000 C   0  0  0  0  0  0  0  0  0  0  0  0
    4.7271   -0.8335    0.0000 H   0  0  0  0  0  0  0  0  0  0  0  0
    3.6987   -2.0592    0.0000 H   0  0  0  0  0  0  0  0  0  0  0  0
    4.1799    0.6700    0.0000 H   0  0  0  0  0  0  0  0  0  0  0  0
    1.2979   -1.8535    0.0000 H   0  0  0  0  0  0  0  0  0  0  0  0
    2.1229    1.2257    0.0000 H   0  0  0  0  0  0  0  0  0  0  0  0
    0.0000   -1.6000    0.0000 H   0  0  0  0  0  0  0  0  0  0  0  0
   -1.2979   -1.8535    0.0000 H   0  0  0  0  0  0  0  0  0  0  0  0
   -1.8535    1.2978    0.0000 H   0  0  0  0  0  0  0  0  0  0  0  0
  1  2  1  0  0  0  0
  2  3  1  0  0  0  0
  1  4  1  0  0  0  0
  4  5  1  0  0  0  0
  5  6  1  0  0  0  0
  5  7  1  0  0  0  0
  5  8  1  0  0  0  0
  4  9  1  0  0  0  0
  9 10  1  0  0  0  0
 10 11  1  0  0  0  0
 10 12  1  0  0  0  0
 10 13  1  0  0  0  0
  9 14  1  0  0  0  0
  9 15  1  0  0  0  0
  4 16  1  0  0  0  0
  1 17  1  0  0  0  0
  1 18  1  0  0  0  0
M  END
> <CAS>
137-32-6

> <NAME>
2-METHYL-1-BUTANOL

> <preferred_name>
2-Methyl-1-butanol

> <iupac>
2-methylbutan-1-ol

> <SMILES>
CCC(C)CO

> <Canonical_QSARr>
CCC(C)CO

> <InChI_Code_QSARr>
InChI=1S/C5H12O/c1-3-5(2)4-6/h5-6H,3-4H2,1-2H3

> <InChI Key_QSARr>
QPRQEDXDYOZYLA-UHFFFAOYSA-N

> <Salt_Solvent>
?

> <WS Temperature>
25

> <WS Reference>
YALKOWSKY,SH & DANNENFELSER,RM (1992)

> <dsstox_substance_id>
DTXSID5027069

> <LogMolar>
-0.4725

$$$$
138-15-8
  -INDIGO-01081615412D

 19 18  0  0  0  0  0  0  0  0999 V2000
    3.1758    0.2778    0.0000 C   0  0  0  0  0  0  0  0  0  0  0  0
    3.7229    1.7814    0.0000 O   0  0  0  0  0  0  0  0  0  0  0  0
    5.2986    2.0592    0.0000 H   0  0  0  0  0  0  0  0  0  0  0  0
    1.6001    0.0000    0.0000 C   0  0  0  0  0  0  0  0  0  0  0  0
    1.8778   -1.5757    0.0000 N   0  0  0  0  0  0  0  0  0  0  0  0
    3.3813   -2.1230    0.0000 H   0  0  0  0  0  0  0  0  0  0  0  0
    0.8494   -2.8014    0.0000 H   0  0  0  0  0  0  0  0  0  0  0  0
    0.0001    0.0000    0.0000 C   0  0  0  0  0  0  0  0  0  0  0  0
   -1.5999    0.0000    0.0000 C   0  0  0  0  0  0  0  0  0  0  0  0
   -3.1999    0.0000    0.0000 C   0  0  0  0  0  0  0  0  0  0  0  0
   -4.0000    1.3857    0.0000 O   0  0  0  0  0  0  0  0  0  0  0  0
   -5.6000    1.3857    0.0000 H   0  0  0  0  0  0  0  0  0  0  0  0
   -4.0000   -1.3857    0.0000 O   0  0  0  0  0  0  0  0  0  0  0  0
   -1.5999    1.6000    0.0000 H   0  0  0  0  0  0  0  0  0  0  0  0
   -1.5999   -1.6000    0.0000 H   0  0  0  0  0  0  0  0  0  0  0  0
    0.0001    1.6000    0.0000 H   0  0  0  0  0  0  0  0  0  0  0  0
    0.0001   -1.6000    0.0000 H   0  0  0  0  0  0  0  0  0  0  0  0
    1.3222    1.5757    0.0000 H   0  0  0  0  0  0  0  0  0  0  0  0
    4.2042   -0.9479    0.0000 O   0  0  0  0  0  0  0  0  0  0  0  0
  1  2  1  0  0  0  0
  2  3  1  0  0  0  0
  1  4  1  0  0  0  0
  4  5  1  0  0  0  0
  5  6  1  0  0  0  0
  5  7  1  0  0  0  0
  4  8  1  0  0  0  0
  8  9  1  0  0  0  0
  9 10  1  0  0  0  0
 10 11  1  0  0  0  0
 11 12  1  0  0  0  0
 10 13  2  0  0  0  0
  9 14  1  0  0  0  0
  9 15  1  0  0  0  0
  8 16  1  0  0  0  0
  8 17  1  0  0  0  0
  4 18  1  0  0  0  0
  1 19  2  0  0  0  0
M  END
> <CAS>
138-15-8

> <NAME>
GLUTAMIC ACID HYDROCHLORIDE

> <preferred_name>
L-Glutamic acid hydrochloride

> <iupac>
L-glutamic acid hydrochloride (1:1)

> <SMILES>
Cl.N[C@@H](CCC(O)=O)C(O)=O

> <Canonical_QSARr>
NC(CCC(O)=O)C(O)=O

> <InChI_Code_QSARr>
InChI=1S/C5H9NO4/c6-3(5(9)10)1-2-4(7)8/h3H,1-2,6H2,(H,7,8)(H,9,10)

> <InChI Key_QSARr>
WHUUTDBJXJRKMK-UHFFFAOYSA-N

> <Salt_Solvent>
Cl

> <WS Temperature>
20

> <WS Reference>
SEIDELL,A (1941)

> <dsstox_substance_id>
DTXSID6047155

> <LogMolar>
0.3159

$$$$
138-39-6
  -INDIGO-01081615412D

 22 22  0  0  0  0  0  0  0  0999 V2000
    1.6000   -0.0000    0.0000 S   0  0  0  0  0  0  0  0  0  0  0  0
    1.6000   -1.6000    0.0000 O   0  0  0  0  0  0  0  0  0  0  0  0
    1.6000    1.6000    0.0000 O   0  0  0  0  0  0  0  0  0  0  0  0
    3.2000   -0.0000    0.0000 N   0  0  0  0  0  0  0  0  0  0  0  0
    4.0000   -1.3856    0.0000 H   0  0  0  0  0  0  0  0  0  0  0  0
    4.0000    1.3856    0.0000 H   0  0  0  0  0  0  0  0  0  0  0  0
    0.0001   -0.0000    0.0000 C   0  0  0  0  0  0  0  0  0  0  0  0
   -0.7999    1.3856    0.0000 C   0  0  0  0  0  0  0  0  0  0  0  0
    0.0001    2.7713    0.0000 H   0  0  0  0  0  0  0  0  0  0  0  0
   -2.4001    1.3856    0.0000 C   0  0  0  0  0  0  0  0  0  0  0  0
   -3.2001    2.7713    0.0000 H   0  0  0  0  0  0  0  0  0  0  0  0
   -3.2001   -0.0000    0.0000 C   0  0  0  0  0  0  0  0  0  0  0  0
   -4.8000   -0.0000    0.0000 C   0  0  0  0  0  0  0  0  0  0  0  0
   -6.4000   -0.0000    0.0000 N   0  0  0  0  0  0  0  0  0  0  0  0
   -7.2000    1.3856    0.0000 H   0  0  0  0  0  0  0  0  0  0  0  0
   -7.2000   -1.3856    0.0000 H   0  0  0  0  0  0  0  0  0  0  0  0
   -4.8000    1.6000    0.0000 H   0  0  0  0  0  0  0  0  0  0  0  0
   -4.8000   -1.6000    0.0000 H   0  0  0  0  0  0  0  0  0  0  0  0
   -2.4001   -1.3856    0.0000 C   0  0  0  0  0  0  0  0  0  0  0  0
   -3.2001   -2.7713    0.0000 H   0  0  0  0  0  0  0  0  0  0  0  0
   -0.7999   -1.3856    0.0000 C   0  0  0  0  0  0  0  0  0  0  0  0
    0.0001   -2.7713    0.0000 H   0  0  0  0  0  0  0  0  0  0  0  0
  1  2  2  0  0  0  0
  1  3  2  0  0  0  0
  1  4  1  0  0  0  0
  4  5  1  0  0  0  0
  4  6  1  0  0  0  0
  1  7  1  0  0  0  0
  7  8  4  0  0  0  0
  8  9  1  0  0  0  0
  8 10  4  0  0  0  0
 10 11  1  0  0  0  0
 10 12  4  0  0  0  0
 12 13  1  0  0  0  0
 13 14  1  0  0  0  0
 14 15  1  0  0  0  0
 14 16  1  0  0  0  0
 13 17  1  0  0  0  0
 13 18  1  0  0  0  0
 12 19  4  0  0  0  0
 19 20  1  0  0  0  0
 19 21  4  0  0  0  0
 21  7  4  0  0  0  0
 21 22  1  0  0  0  0
M  END
> <CAS>
138-39-6

> <NAME>
Benzenesulfonamide, 4-(aminomethyl)-

> <preferred_name>
Mafenide

> <iupac>
4-(aminomethyl)benzenesulfonamide

> <SMILES>
NCc1ccc(cc1)S(N)(=O)=O

> <Canonical_QSARr>
NCc1ccc(cc1)S(N)(=O)=O

> <InChI_Code_QSARr>
InChI=1S/C7H10N2O2S/c8-5-6-1-3-7(4-2-6)12(9,10)11/h1-4H,5,8H2,(H2,9,10,11)

> <InChI Key_QSARr>
TYMRLRRVMHJFTF-UHFFFAOYSA-N

> <Salt_Solvent>
?

> <WS Temperature>
20

> <WS Reference>
BEILSTEIN

> <dsstox_substance_id>
DTXSID6047860

> <LogMolar>
0.321

$$$$
139-13-9
  -INDIGO-01081615412D

 22 21  0  0  0  0  0  0  0  0999 V2000
    1.3857   -4.0001    0.0000 O   0  0  0  0  0  0  0  0  0  0  0  0
    0.0001   -3.2000    0.0000 C   0  0  0  0  0  0  0  0  0  0  0  0
    0.0001   -1.6000    0.0000 C   0  0  0  0  0  0  0  0  0  0  0  0
    0.0001    0.0000    0.0000 N   0  0  0  0  0  0  0  0  0  0  0  0
    1.3857    0.8000    0.0000 C   0  0  0  0  0  0  0  0  0  0  0  0
    2.7713    1.6000    0.0000 C   0  0  0  0  0  0  0  0  0  0  0  0
    2.7713    3.2000    0.0000 O   0  0  0  0  0  0  0  0  0  0  0  0
    4.1569    4.0000    0.0000 H   0  0  0  0  0  0  0  0  0  0  0  0
    4.1569    0.8000    0.0000 O   0  0  0  0  0  0  0  0  0  0  0  0
    0.5856    2.1856    0.0000 H   0  0  0  0  0  0  0  0  0  0  0  0
    2.1856   -0.5856    0.0000 H   0  0  0  0  0  0  0  0  0  0  0  0
   -1.3857    0.8000    0.0000 C   0  0  0  0  0  0  0  0  0  0  0  0
   -2.7713    1.6000    0.0000 C   0  0  0  0  0  0  0  0  0  0  0  0
   -4.1569    0.8000    0.0000 O   0  0  0  0  0  0  0  0  0  0  0  0
   -5.5426    1.6000    0.0000 H   0  0  0  0  0  0  0  0  0  0  0  0
   -2.7713    3.2000    0.0000 O   0  0  0  0  0  0  0  0  0  0  0  0
   -0.5856    2.1856    0.0000 H   0  0  0  0  0  0  0  0  0  0  0  0
   -2.1857   -0.5856    0.0000 H   0  0  0  0  0  0  0  0  0  0  0  0
    1.6000   -1.6000    0.0000 H   0  0  0  0  0  0  0  0  0  0  0  0
   -1.6000   -1.6000    0.0000 H   0  0  0  0  0  0  0  0  0  0  0  0
   -1.3857   -4.0001    0.0000 O   0  0  0  0  0  0  0  0  0  0  0  0
    1.3857   -5.6000    0.0000 H   0  0  0  0  0  0  0  0  0  0  0  0
  1  2  1  0  0  0  0
  2  3  1  0  0  0  0
  3  4  1  0  0  0  0
  4  5  1  0  0  0  0
  5  6  1  0  0  0  0
  6  7  1  0  0  0  0
  7  8  1  0  0  0  0
  6  9  2  0  0  0  0
  5 10  1  0  0  0  0
  5 11  1  0  0  0  0
  4 12  1  0  0  0  0
 12 13  1  0  0  0  0
 13 14  1  0  0  0  0
 14 15  1  0  0  0  0
 13 16  2  0  0  0  0
 12 17  1  0  0  0  0
 12 18  1  0  0  0  0
  3 19  1  0  0  0  0
  3 20  1  0  0  0  0
  2 21  2  0  0  0  0
  1 22  1  0  0  0  0
M  END
> <CAS>
139-13-9

> <NAME>
NITRILOTRIACETIC ACID

> <preferred_name>
Nitrilotriacetic acid

> <iupac>
2,2',2''-nitrilotriacetic acid

> <SMILES>
OC(=O)CN(CC(O)=O)CC(O)=O

> <Canonical_QSARr>
OC(=O)CN(CC(O)=O)CC(O)=O

> <InChI_Code_QSARr>
InChI=1S/C6H9NO6/c8-4(9)1-7(2-5(10)11)3-6(12)13/h1-3H2,(H,8,9)(H,10,11)(H,12,13)

> <InChI Key_QSARr>
MGFYIUFZLHCRTH-UHFFFAOYSA-N

> <Salt_Solvent>
?

> <WS Temperature>
25

> <WS Reference>
YALKOWSKY,SH & DANNENFELSER,RM (1992)

> <dsstox_substance_id>
DTXSID6020939

> <LogMolar>
-0.5101

$$$$
139-86-6
  -INDIGO-01081615412D

 20 20  0  0  0  0  0  0  0  0999 V2000
   -3.9825    1.7201    0.0000 S   0  0  0  1  0  0  0  0  0  0  0  0
   -5.5475    1.3875    0.0000 C   0  0  0  0  0  0  0  0  0  0  0  0
   -6.7366    2.4581    0.0000 H   0  0  0  0  0  0  0  0  0  0  0  0
   -5.7148   -0.2037    0.0000 C   0  0  0  0  0  0  0  0  0  0  0  0
   -7.1004   -1.0037    0.0000 H   0  0  0  0  0  0  0  0  0  0  0  0
   -4.2532   -0.8546    0.0000 C   0  0  0  0  0  0  0  0  0  0  0  0
   -3.9205   -2.4196    0.0000 H   0  0  0  0  0  0  0  0  0  0  0  0
   -3.1825    0.3345    0.0000 C   0  0  0  0  0  0  0  0  0  0  0  0
   -1.5913    0.1672    0.0000 C   0  0  0  0  0  0  0  0  0  0  0  0
   -0.0000    0.0000    0.0000 C   0  0  0  0  0  0  0  0  0  0  0  0
    1.5380   -0.4411    0.0000 C   0  0  0  0  0  0  0  0  0  0  0  0
    2.6889    0.6704    0.0000 O   0  0  0  0  0  0  0  0  0  0  0  0
    1.9251   -1.9935    0.0000 O   0  0  0  0  0  0  0  0  0  0  0  0
    3.4631   -2.4345    0.0000 H   0  0  0  0  0  0  0  0  0  0  0  0
    0.4410    1.5380    0.0000 N   0  0  0  0  0  0  0  0  0  0  0  0
    1.9936    1.9251    0.0000 H   0  0  0  0  0  0  0  0  0  0  0  0
   -0.4536    2.8645    0.0000 H   0  0  0  0  0  0  0  0  0  0  0  0
   -0.4410   -1.5380    0.0000 H   0  0  0  0  0  0  0  0  0  0  0  0
   -1.4240    1.7585    0.0000 H   0  0  0  0  0  0  0  0  0  0  0  0
   -1.7584   -1.4240    0.0000 H   0  0  0  0  0  0  0  0  0  0  0  0
  1  2  4  0  0  0  0
  2  3  1  0  0  0  0
  2  4  4  0  0  0  0
  4  5  1  0  0  0  0
  4  6  4  0  0  0  0
  6  7  1  0  0  0  0
  6  8  4  0  0  0  0
  8  1  4  0  0  0  0
  8  9  1  0  0  0  0
  9 10  1  0  0  0  0
 10 11  1  0  0  0  0
 11 12  2  0  0  0  0
 11 13  1  0  0  0  0
 13 14  1  0  0  0  0
 10 15  1  0  0  0  0
 15 16  1  0  0  0  0
 15 17  1  0  0  0  0
 10 18  1  0  0  0  0
  9 19  1  0  0  0  0
  9 20  1  0  0  0  0
M  END
> <CAS>
139-86-6

> <NAME>
2-Thiophenepropanoic acid, .alpha.-amino-

> <preferred_name>
3-(2-Thienyl)alanine

> <iupac>
(2S)-2-amino-3-thiophen-2-ylpropanoic acid

> <SMILES>
N[C@@H](Cc1ccc[s]1)C(O)=O

> <Canonical_QSARr>
NC(Cc1ccc[s]1)C(O)=O

> <InChI_Code_QSARr>
InChI=1S/C7H9NO2S/c8-6(7(9)10)4-5-2-1-3-11-5/h1-3,6H,4,8H2,(H,9,10)

> <InChI Key_QSARr>
WTOFYLAWDLQMBZ-UHFFFAOYSA-N

> <Salt_Solvent>
?

> <WS Temperature>
25

> <WS Reference>
BEILSTEIN

> <dsstox_substance_id>
DTXSID00177100

> <LogMolar>
-0.8356

$$$$
140-10-3, 621-82-9
  -INDIGO-01081615412D

 19 19  0  0  0  0  0  0  0  0999 V2000
   -0.0001   -0.0000    0.0000 C   0  0  0  0  0  0  0  0  0  0  0  0
   -0.8001    1.3856    0.0000 C   0  0  0  0  0  0  0  0  0  0  0  0
   -0.0001    2.7713    0.0000 H   0  0  0  0  0  0  0  0  0  0  0  0
   -2.4000    1.3856    0.0000 C   0  0  0  0  0  0  0  0  0  0  0  0
   -3.2000    2.7713    0.0000 H   0  0  0  0  0  0  0  0  0  0  0  0
   -3.2000   -0.0000    0.0000 C   0  0  0  0  0  0  0  0  0  0  0  0
   -4.8000   -0.0000    0.0000 H   0  0  0  0  0  0  0  0  0  0  0  0
   -2.4000   -1.3856    0.0000 C   0  0  0  0  0  0  0  0  0  0  0  0
   -3.2000   -2.7713    0.0000 H   0  0  0  0  0  0  0  0  0  0  0  0
   -0.8001   -1.3856    0.0000 C   0  0  0  0  0  0  0  0  0  0  0  0
   -0.0001   -2.7713    0.0000 H   0  0  0  0  0  0  0  0  0  0  0  0
    1.6001    0.0000    0.0000 C   0  0  0  0  0  0  0  0  0  0  0  0
    2.4001   -1.3856    0.0000 C   0  0  0  0  0  0  0  0  0  0  0  0
    4.0000   -1.3856    0.0000 C   0  0  0  0  0  0  0  0  0  0  0  0
    4.8000    0.0000    0.0000 O   0  0  0  0  0  0  0  0  0  0  0  0
    4.8000   -2.7713    0.0000 O   0  0  0  0  0  0  0  0  0  0  0  0
    6.4000   -2.7713    0.0000 H   0  0  0  0  0  0  0  0  0  0  0  0
    1.6001   -2.7713    0.0000 H   0  0  0  0  0  0  0  0  0  0  0  0
    2.4001    1.3856    0.0000 H   0  0  0  0  0  0  0  0  0  0  0  0
  1  2  4  0  0  0  0
  2  3  1  0  0  0  0
  2  4  4  0  0  0  0
  4  5  1  0  0  0  0
  4  6  4  0  0  0  0
  6  7  1  0  0  0  0
  6  8  4  0  0  0  0
  8  9  1  0  0  0  0
  8 10  4  0  0  0  0
 10  1  4  0  0  0  0
 10 11  1  0  0  0  0
  1 12  1  0  0  0  0
 12 13  2  0  0  0  0
 13 14  1  0  0  0  0
 14 15  2  0  0  0  0
 14 16  1  0  0  0  0
 16 17  1  0  0  0  0
 13 18  1  0  0  0  0
 12 19  1  0  0  0  0
M  END
> <CAS>
140-10-3, 621-82-9

> <NAME>
2-PROPENOIC ACID, 3-PHENYL-, (E)-, CINNAMIC ACID

> <preferred_name>
E-Cinnamic acid

> <iupac>
(2E)-3-phenylprop-2-enoic acid

> <SMILES>
OC(=O)/C=C/c1ccccc1

> <Canonical_QSARr>
OC(=O)C=Cc1ccccc1

> <InChI_Code_QSARr>
InChI=1S/C9H8O2/c10-9(11)7-6-8-4-2-1-3-5-8/h1-7H,(H,10,11)/b7-6+

> <InChI Key_QSARr>
WBYWAXJHAXSJNI-VOTSOKGWSA-N

> <Salt_Solvent>
?

> <WS Temperature>
25

> <WS Reference>
YALKOWSKY,SH & DANNENFELSER,RM (1992)

> <dsstox_substance_id>
DTXSID5022489

> <LogMolar>
-2.4242

$$$$
140-67-0
  -INDIGO-01081615412D

 23 23  0  0  0  0  0  0  0  0999 V2000
    4.0000   -1.3856    0.0000 C   0  0  0  0  0  0  0  0  0  0  0  0
    3.2000    0.0000    0.0000 C   0  0  0  0  0  0  0  0  0  0  0  0
    1.5999    0.0000    0.0000 C   0  0  0  0  0  0  0  0  0  0  0  0
   -0.0001   -0.0000    0.0000 C   0  0  0  0  0  0  0  0  0  0  0  0
   -0.8001    1.3856    0.0000 C   0  0  0  0  0  0  0  0  0  0  0  0
   -0.0001    2.7713    0.0000 H   0  0  0  0  0  0  0  0  0  0  0  0
   -2.3999    1.3856    0.0000 C   0  0  0  0  0  0  0  0  0  0  0  0
   -3.1999    2.7713    0.0000 H   0  0  0  0  0  0  0  0  0  0  0  0
   -3.1999   -0.0000    0.0000 C   0  0  0  0  0  0  0  0  0  0  0  0
   -4.8000   -0.0000    0.0000 O   0  0  0  0  0  0  0  0  0  0  0  0
   -5.6000    1.3856    0.0000 C   0  0  0  0  0  0  0  0  0  0  0  0
   -7.2000    1.3856    0.0000 H   0  0  0  0  0  0  0  0  0  0  0  0
   -6.4000    2.7713    0.0000 H   0  0  0  0  0  0  0  0  0  0  0  0
   -6.4000   -0.0000    0.0000 H   0  0  0  0  0  0  0  0  0  0  0  0
   -2.3999   -1.3856    0.0000 C   0  0  0  0  0  0  0  0  0  0  0  0
   -3.1999   -2.7713    0.0000 H   0  0  0  0  0  0  0  0  0  0  0  0
   -0.8001   -1.3856    0.0000 C   0  0  0  0  0  0  0  0  0  0  0  0
   -0.0001   -2.7713    0.0000 H   0  0  0  0  0  0  0  0  0  0  0  0
    1.5999   -1.6000    0.0000 H   0  0  0  0  0  0  0  0  0  0  0  0
    1.5999    1.6000    0.0000 H   0  0  0  0  0  0  0  0  0  0  0  0
    4.0000    1.3856    0.0000 H   0  0  0  0  0  0  0  0  0  0  0  0
    5.6000   -1.3856    0.0000 H   0  0  0  0  0  0  0  0  0  0  0  0
    3.2000   -2.7713    0.0000 H   0  0  0  0  0  0  0  0  0  0  0  0
  1  2  2  0  0  0  0
  2  3  1  0  0  0  0
  3  4  1  0  0  0  0
  4  5  4  0  0  0  0
  5  6  1  0  0  0  0
  5  7  4  0  0  0  0
  7  8  1  0  0  0  0
  7  9  4  0  0  0  0
  9 10  1  0  0  0  0
 10 11  1  0  0  0  0
 11 12  1  0  0  0  0
 11 13  1  0  0  0  0
 11 14  1  0  0  0  0
  9 15  4  0  0  0  0
 15 16  1  0  0  0  0
 15 17  4  0  0  0  0
 17  4  4  0  0  0  0
 17 18  1  0  0  0  0
  3 19  1  0  0  0  0
  3 20  1  0  0  0  0
  2 21  1  0  0  0  0
  1 22  1  0  0  0  0
  1 23  1  0  0  0  0
M  END
> <CAS>
140-67-0

> <NAME>
Benzene, 1-methoxy-4-(2-propenyl)-

> <preferred_name>
Estragole

> <iupac>
1-methoxy-4-(prop-2-en-1-yl)benzene

> <SMILES>
COc1ccc(CC=C)cc1

> <Canonical_QSARr>
COc1ccc(CC=C)cc1

> <InChI_Code_QSARr>
InChI=1S/C10H12O/c1-3-4-9-5-7-10(11-2)8-6-9/h3,5-8H,1,4H2,2H3

> <InChI Key_QSARr>
ZFMSMUAANRJZFM-UHFFFAOYSA-N

> <Salt_Solvent>
?

> <WS Temperature>
25

> <WS Reference>
YALKOWSKY,SH & DANNENFELSER,RM (1992)

> <dsstox_substance_id>
DTXSID0020575

> <LogMolar>
-2.9209

$$$$
141-03-7
  -INDIGO-01081615412D

 38 37  0  0  0  0  0  0  0  0999 V2000
    3.2000    0.0000    0.0000 C   0  0  0  0  0  0  0  0  0  0  0  0
    1.6000    0.0000    0.0000 C   0  0  0  0  0  0  0  0  0  0  0  0
    0.0001    0.0000    0.0000 C   0  0  0  0  0  0  0  0  0  0  0  0
   -1.5999    0.0000    0.0000 C   0  0  0  0  0  0  0  0  0  0  0  0
   -3.1999    0.0000    0.0000 O   0  0  0  0  0  0  0  0  0  0  0  0
   -4.0000   -1.3856    0.0000 C   0  0  0  0  0  0  0  0  0  0  0  0
   -5.6000   -1.3856    0.0000 C   0  0  0  0  0  0  0  0  0  0  0  0
   -7.2000   -1.3856    0.0000 C   0  0  0  0  0  0  0  0  0  0  0  0
   -8.8000   -1.3856    0.0000 C   0  0  0  0  0  0  0  0  0  0  0  0
   -9.6001   -2.7713    0.0000 O   0  0  0  0  0  0  0  0  0  0  0  0
  -11.2001   -2.7713    0.0000 C   0  0  0  0  0  0  0  0  0  0  0  0
  -12.8001   -2.7713    0.0000 C   0  0  0  0  0  0  0  0  0  0  0  0
  -14.4000   -2.7713    0.0000 C   0  0  0  0  0  0  0  0  0  0  0  0
  -16.0000   -2.7713    0.0000 C   0  0  0  0  0  0  0  0  0  0  0  0
  -17.6000   -2.7713    0.0000 H   0  0  0  0  0  0  0  0  0  0  0  0
  -16.7998   -4.1569    0.0000 H   0  0  0  0  0  0  0  0  0  0  0  0
  -16.7998   -1.3857    0.0000 H   0  0  0  0  0  0  0  0  0  0  0  0
  -14.4000   -4.3713    0.0000 H   0  0  0  0  0  0  0  0  0  0  0  0
  -14.4000   -1.1713    0.0000 H   0  0  0  0  0  0  0  0  0  0  0  0
  -12.8001   -4.3713    0.0000 H   0  0  0  0  0  0  0  0  0  0  0  0
  -12.8001   -1.1713    0.0000 H   0  0  0  0  0  0  0  0  0  0  0  0
  -11.2001   -4.3713    0.0000 H   0  0  0  0  0  0  0  0  0  0  0  0
  -11.2001   -1.1713    0.0000 H   0  0  0  0  0  0  0  0  0  0  0  0
   -9.6001    0.0000    0.0000 O   0  0  0  0  0  0  0  0  0  0  0  0
   -7.2000   -2.9857    0.0000 H   0  0  0  0  0  0  0  0  0  0  0  0
   -7.2000    0.2144    0.0000 H   0  0  0  0  0  0  0  0  0  0  0  0
   -5.6000   -2.9857    0.0000 H   0  0  0  0  0  0  0  0  0  0  0  0
   -5.6000    0.2144    0.0000 H   0  0  0  0  0  0  0  0  0  0  0  0
   -3.1999   -2.7713    0.0000 O   0  0  0  0  0  0  0  0  0  0  0  0
   -1.5999   -1.6000    0.0000 H   0  0  0  0  0  0  0  0  0  0  0  0
   -1.5999    1.6000    0.0000 H   0  0  0  0  0  0  0  0  0  0  0  0
    0.0001    1.6000    0.0000 H   0  0  0  0  0  0  0  0  0  0  0  0
    0.0001   -1.6000    0.0000 H   0  0  0  0  0  0  0  0  0  0  0  0
    1.6000   -1.6000    0.0000 H   0  0  0  0  0  0  0  0  0  0  0  0
    1.6000    1.6000    0.0000 H   0  0  0  0  0  0  0  0  0  0  0  0
    4.8000    0.0000    0.0000 H   0  0  0  0  0  0  0  0  0  0  0  0
    3.9998   -1.3856    0.0000 H   0  0  0  0  0  0  0  0  0  0  0  0
    3.9998    1.3856    0.0000 H   0  0  0  0  0  0  0  0  0  0  0  0
  1  2  1  0  0  0  0
  2  3  1  0  0  0  0
  3  4  1  0  0  0  0
  4  5  1  0  0  0  0
  5  6  1  0  0  0  0
  6  7  1  0  0  0  0
  7  8  1  0  0  0  0
  8  9  1  0  0  0  0
  9 10  1  0  0  0  0
 10 11  1  0  0  0  0
 11 12  1  0  0  0  0
 12 13  1  0  0  0  0
 13 14  1  0  0  0  0
 14 15  1  0  0  0  0
 14 16  1  0  0  0  0
 14 17  1  0  0  0  0
 13 18  1  0  0  0  0
 13 19  1  0  0  0  0
 12 20  1  0  0  0  0
 12 21  1  0  0  0  0
 11 22  1  0  0  0  0
 11 23  1  0  0  0  0
  9 24  2  0  0  0  0
  8 25  1  0  0  0  0
  8 26  1  0  0  0  0
  7 27  1  0  0  0  0
  7 28  1  0  0  0  0
  6 29  2  0  0  0  0
  4 30  1  0  0  0  0
  4 31  1  0  0  0  0
  3 32  1  0  0  0  0
  3 33  1  0  0  0  0
  2 34  1  0  0  0  0
  2 35  1  0  0  0  0
  1 36  1  0  0  0  0
  1 37  1  0  0  0  0
  1 38  1  0  0  0  0
M  END
> <CAS>
141-03-7

> <NAME>
Butanedioic acid, dibutyl ester

> <preferred_name>
Dibutyl butanedioate

> <iupac>
dibutyl butanedioate

> <SMILES>
CCCCOC(=O)CCC(=O)OCCCC

> <Canonical_QSARr>
CCCCOC(=O)CCC(=O)OCCCC

> <InChI_Code_QSARr>
InChI=1S/C12H22O4/c1-3-5-9-15-11(13)7-8-12(14)16-10-6-4-2/h3-10H2,1-2H3

> <InChI Key_QSARr>
YUXIBTJKHLUKBD-UHFFFAOYSA-N

> <Salt_Solvent>
?

> <WS Temperature>


> <WS Reference>
BEILSTEIN

> <dsstox_substance_id>
DTXSID7021998

> <LogMolar>
-3.0006

$$$$
141-43-5
  -INDIGO-01081615412D

 11 10  0  0  0  0  0  0  0  0999 V2000
    3.2000    0.0000    0.0000 O   0  0  0  0  0  0  0  0  0  0  0  0
    1.6000    0.0000    0.0000 C   0  0  0  0  0  0  0  0  0  0  0  0
    0.0000    0.0000    0.0000 C   0  0  0  0  0  0  0  0  0  0  0  0
   -1.6000   -0.0000    0.0000 N   0  0  0  0  0  0  0  0  0  0  0  0
   -2.4000   -1.3856    0.0000 H   0  0  0  0  0  0  0  0  0  0  0  0
   -2.4000    1.3856    0.0000 H   0  0  0  0  0  0  0  0  0  0  0  0
    0.0000    1.6000    0.0000 H   0  0  0  0  0  0  0  0  0  0  0  0
    0.0000   -1.6000    0.0000 H   0  0  0  0  0  0  0  0  0  0  0  0
    1.6000   -1.6000    0.0000 H   0  0  0  0  0  0  0  0  0  0  0  0
    1.6000    1.6000    0.0000 H   0  0  0  0  0  0  0  0  0  0  0  0
    4.0000   -1.3856    0.0000 H   0  0  0  0  0  0  0  0  0  0  0  0
  1  2  1  0  0  0  0
  2  3  1  0  0  0  0
  3  4  1  0  0  0  0
  4  5  1  0  0  0  0
  4  6  1  0  0  0  0
  3  7  1  0  0  0  0
  3  8  1  0  0  0  0
  2  9  1  0  0  0  0
  2 10  1  0  0  0  0
  1 11  1  0  0  0  0
M  END
> <CAS>
141-43-5

> <NAME>
ETHANOLAMINE

> <preferred_name>
Ethanolamine

> <iupac>
2-aminoethanol

> <SMILES>
NCCO

> <Canonical_QSARr>
NCCO

> <InChI_Code_QSARr>
InChI=1S/C2H7NO/c3-1-2-4/h4H,1-3H2

> <InChI Key_QSARr>
HZAXFHJVJLSVMW-UHFFFAOYSA-N

> <Salt_Solvent>
?

> <WS Temperature>


> <WS Reference>
RIDDICK,JA ET AL. (1986)

> <dsstox_substance_id>
DTXSID6022000

> <LogMolar>
1.2141

$$$$
141-78-6
  -INDIGO-01081615412D

 14 13  0  0  0  0  0  0  0  0999 V2000
   -4.0001   -1.3856    0.0000 C   0  0  0  0  0  0  0  0  0  0  0  0
   -2.4000   -1.3856    0.0000 C   0  0  0  0  0  0  0  0  0  0  0  0
   -1.6000    0.0000    0.0000 O   0  0  0  0  0  0  0  0  0  0  0  0
   -0.0000    0.0000    0.0000 C   0  0  0  0  0  0  0  0  0  0  0  0
    1.6001    0.0000    0.0000 C   0  0  0  0  0  0  0  0  0  0  0  0
    3.2000    0.0000    0.0000 H   0  0  0  0  0  0  0  0  0  0  0  0
    2.4000   -1.3856    0.0000 H   0  0  0  0  0  0  0  0  0  0  0  0
    2.4000    1.3856    0.0000 H   0  0  0  0  0  0  0  0  0  0  0  0
   -0.0000    1.6000    0.0000 H   0  0  0  0  0  0  0  0  0  0  0  0
   -0.0000   -1.6000    0.0000 H   0  0  0  0  0  0  0  0  0  0  0  0
   -1.6000   -2.7713    0.0000 O   0  0  0  0  0  0  0  0  0  0  0  0
   -5.6000   -1.3856    0.0000 H   0  0  0  0  0  0  0  0  0  0  0  0
   -4.8000   -2.7713    0.0000 H   0  0  0  0  0  0  0  0  0  0  0  0
   -4.8000    0.0000    0.0000 H   0  0  0  0  0  0  0  0  0  0  0  0
  1  2  1  0  0  0  0
  2  3  1  0  0  0  0
  3  4  1  0  0  0  0
  4  5  1  0  0  0  0
  5  6  1  0  0  0  0
  5  7  1  0  0  0  0
  5  8  1  0  0  0  0
  4  9  1  0  0  0  0
  4 10  1  0  0  0  0
  2 11  2  0  0  0  0
  1 12  1  0  0  0  0
  1 13  1  0  0  0  0
  1 14  1  0  0  0  0
M  END
> <CAS>
141-78-6

> <NAME>
ETHYL ACETATE

> <preferred_name>
Ethyl acetate

> <iupac>
ethyl acetate

> <SMILES>
CCOC(C)=O

> <Canonical_QSARr>
CCOC(C)=O

> <InChI_Code_QSARr>
InChI=1S/C4H8O2/c1-3-6-4(2)5/h3H2,1-2H3

> <InChI Key_QSARr>
XEKOWRVHYACXOJ-UHFFFAOYSA-N

> <Salt_Solvent>
?

> <WS Temperature>
25

> <WS Reference>
BANERJEE,S (1984)

> <dsstox_substance_id>
DTXSID1022001

> <LogMolar>
-0.0419

$$$$
141-90-2
  -INDIGO-01081615412D

 12 12  0  0  0  0  0  0  0  0999 V2000
   -0.8000    1.3856    0.0000 O   0  0  0  0  0  0  0  0  0  0  0  0
    0.0000   -0.0000    0.0000 C   0  0  0  0  0  0  0  0  0  0  0  0
   -0.8000   -1.3857    0.0000 C   0  0  0  0  0  0  0  0  0  0  0  0
   -2.4000   -1.3857    0.0000 H   0  0  0  0  0  0  0  0  0  0  0  0
    0.0000   -2.7713    0.0000 C   0  0  0  0  0  0  0  0  0  0  0  0
   -0.8000   -4.1569    0.0000 H   0  0  0  0  0  0  0  0  0  0  0  0
    1.6000   -2.7713    0.0000 N   0  0  0  0  0  0  0  0  0  0  0  0
    2.4000   -4.1569    0.0000 H   0  0  0  0  0  0  0  0  0  0  0  0
    2.4000   -1.3857    0.0000 C   0  0  0  0  0  0  0  0  0  0  0  0
    4.0000   -1.3857    0.0000 S   0  0  0  0  0  0  0  0  0  0  0  0
    1.6000   -0.0000    0.0000 N   0  0  0  0  0  0  0  0  0  0  0  0
    2.4000    1.3856    0.0000 H   0  0  0  0  0  0  0  0  0  0  0  0
  1  2  2  0  0  0  0
  2  3  1  0  0  0  0
  3  4  1  0  0  0  0
  3  5  2  0  0  0  0
  5  6  1  0  0  0  0
  5  7  1  0  0  0  0
  7  8  1  0  0  0  0
  7  9  1  0  0  0  0
  9 10  2  0  0  0  0
  9 11  1  0  0  0  0
 11  2  1  0  0  0  0
 11 12  1  0  0  0  0
M  END
> <CAS>
141-90-2

> <NAME>
2-THIOURACIL

> <preferred_name>
Thiouracil

> <iupac>
2-thioxo-2,3-dihydropyrimidin-4(1H)-one

> <SMILES>
O=C1C=CNC(=S)N1

> <Canonical_QSARr>
O=C1C=CNC(=S)N1

> <InChI_Code_QSARr>
InChI=1S/C4H4N2OS/c7-3-1-2-5-4(8)6-3/h1-2H,(H2,5,6,7,8)

> <InChI Key_QSARr>
ZEMGGZBWXRYJHK-UHFFFAOYSA-N

> <Salt_Solvent>
?

> <WS Temperature>
25

> <WS Reference>
YALKOWSKY,SH & DANNENFELSER,RM (1992)

> <dsstox_substance_id>
DTXSID4021347

> <LogMolar>
-2.2573

$$$$
142-26-7
  -INDIGO-01081615412D

 16 15  0  0  0  0  0  0  0  0999 V2000
   -2.4000   -1.3856    0.0000 C   0  0  0  0  0  0  0  0  0  0  0  0
   -3.9999   -1.3856    0.0000 C   0  0  0  0  0  0  0  0  0  0  0  0
   -5.6000   -1.3856    0.0000 H   0  0  0  0  0  0  0  0  0  0  0  0
   -4.8000   -2.7713    0.0000 H   0  0  0  0  0  0  0  0  0  0  0  0
   -4.8000    0.0000    0.0000 H   0  0  0  0  0  0  0  0  0  0  0  0
   -1.6000    0.0000    0.0000 N   0  0  0  0  0  0  0  0  0  0  0  0
    0.0000    0.0000    0.0000 C   0  0  0  0  0  0  0  0  0  0  0  0
    1.6000    0.0000    0.0000 C   0  0  0  0  0  0  0  0  0  0  0  0
    3.2000    0.0000    0.0000 O   0  0  0  0  0  0  0  0  0  0  0  0
    4.0000    1.3856    0.0000 H   0  0  0  0  0  0  0  0  0  0  0  0
    1.6000   -1.6000    0.0000 H   0  0  0  0  0  0  0  0  0  0  0  0
    1.6000    1.6000    0.0000 H   0  0  0  0  0  0  0  0  0  0  0  0
    0.0000    1.6000    0.0000 H   0  0  0  0  0  0  0  0  0  0  0  0
    0.0000   -1.6000    0.0000 H   0  0  0  0  0  0  0  0  0  0  0  0
   -2.4000    1.3856    0.0000 H   0  0  0  0  0  0  0  0  0  0  0  0
   -1.6000   -2.7713    0.0000 O   0  0  0  0  0  0  0  0  0  0  0  0
  1  2  1  0  0  0  0
  2  3  1  0  0  0  0
  2  4  1  0  0  0  0
  2  5  1  0  0  0  0
  1  6  1  0  0  0  0
  6  7  1  0  0  0  0
  7  8  1  0  0  0  0
  8  9  1  0  0  0  0
  9 10  1  0  0  0  0
  8 11  1  0  0  0  0
  8 12  1  0  0  0  0
  7 13  1  0  0  0  0
  7 14  1  0  0  0  0
  6 15  1  0  0  0  0
  1 16  2  0  0  0  0
M  END
> <CAS>
142-26-7

> <NAME>
Acetamide, N-(2-hydroxyethyl)-

> <preferred_name>
N-(2-Hydroxyethyl)acetamide

> <iupac>
N-(2-hydroxyethyl)acetamide

> <SMILES>
CC(=O)NCCO

> <Canonical_QSARr>
CC(=O)NCCO

> <InChI_Code_QSARr>
InChI=1S/C4H9NO2/c1-4(7)5-2-3-6/h6H,2-3H2,1H3,(H,5,7)

> <InChI Key_QSARr>
PVCJKHHOXFKFRP-UHFFFAOYSA-N

> <Salt_Solvent>
?

> <WS Temperature>
25

> <WS Reference>
KIRK-OTHMER; 4th ed, 2:3 (1992)

> <dsstox_substance_id>
DTXSID6044804

> <LogMolar>
0.9867

$$$$
142-59-6
  -INDIGO-01081615412D

 18 17  0  0  0  0  0  0  0  0999 V2000
   -4.0000    1.3856    0.0000 S   0  0  0  0  0  0  0  0  0  0  0  0
   -2.4000    1.3856    0.0000 C   0  0  0  0  0  0  0  0  0  0  0  0
   -1.6000    0.0000    0.0000 N   0  0  0  0  0  0  0  0  0  0  0  0
   -0.0001    0.0000    0.0000 C   0  0  0  0  0  0  0  0  0  0  0  0
    1.6001    0.0000    0.0000 C   0  0  0  0  0  0  0  0  0  0  0  0
    3.2000    0.0000    0.0000 N   0  0  0  0  0  0  0  0  0  0  0  0
    4.0000   -1.3856    0.0000 C   0  0  0  0  0  0  0  0  0  0  0  0
    3.2000   -2.7713    0.0000 S   0  0  0  0  0  0  0  0  0  0  0  0
    5.6000   -1.3856    0.0000 S   0  0  0  0  0  0  0  0  0  0  0  0
    6.4000   -2.7713    0.0000 H   0  0  0  0  0  0  0  0  0  0  0  0
    4.0000    1.3856    0.0000 H   0  0  0  0  0  0  0  0  0  0  0  0
    1.6001   -1.6000    0.0000 H   0  0  0  0  0  0  0  0  0  0  0  0
    1.6001    1.6000    0.0000 H   0  0  0  0  0  0  0  0  0  0  0  0
   -0.0001    1.6000    0.0000 H   0  0  0  0  0  0  0  0  0  0  0  0
   -0.0001   -1.6000    0.0000 H   0  0  0  0  0  0  0  0  0  0  0  0
   -2.4000   -1.3856    0.0000 H   0  0  0  0  0  0  0  0  0  0  0  0
   -1.6000    2.7713    0.0000 S   0  0  0  0  0  0  0  0  0  0  0  0
   -4.8000    2.7713    0.0000 H   0  0  0  0  0  0  0  0  0  0  0  0
  1  2  1  0  0  0  0
  2  3  1  0  0  0  0
  3  4  1  0  0  0  0
  4  5  1  0  0  0  0
  5  6  1  0  0  0  0
  6  7  1  0  0  0  0
  7  8  2  0  0  0  0
  7  9  1  0  0  0  0
  9 10  1  0  0  0  0
  6 11  1  0  0  0  0
  5 12  1  0  0  0  0
  5 13  1  0  0  0  0
  4 14  1  0  0  0  0
  4 15  1  0  0  0  0
  3 16  1  0  0  0  0
  2 17  2  0  0  0  0
  1 18  1  0  0  0  0
M  END
> <CAS>
142-59-6

> <NAME>
NABAM

> <preferred_name>
Nabam-sodium

> <iupac>
disodium ethane-1,2-diyldicarbamodithioate

> <SMILES>
[Na+].[Na+].[S-]C(=S)NCCNC([S-])=S

> <Canonical_QSARr>
SC(=S)NCCNC(S)=S

> <InChI_Code_QSARr>
InChI=1S/C4H8N2S4/c7-3(8)5-1-2-6-4(9)10/h1-2H2,(H2,5,7,8)(H2,6,9,10)

> <InChI Key_QSARr>
AWYFNIZYMPNGAI-UHFFFAOYSA-N

> <Salt_Solvent>
[Na+].[Na+]

> <WS Temperature>


> <WS Reference>
TOMLIN,C (1994)

> <dsstox_substance_id>
DTXSID5020603

> <LogMolar>
-0.1078

$$$$
142-62-1
  -INDIGO-01081615412D

 20 19  0  0  0  0  0  0  0  0999 V2000
   -3.2000   -0.0000    0.0000 C   0  0  0  0  0  0  0  0  0  0  0  0
   -1.6000    0.0000    0.0000 C   0  0  0  0  0  0  0  0  0  0  0  0
    0.0000    0.0000    0.0000 C   0  0  0  0  0  0  0  0  0  0  0  0
    1.6000    0.0000    0.0000 C   0  0  0  0  0  0  0  0  0  0  0  0
    3.2000    0.0000    0.0000 C   0  0  0  0  0  0  0  0  0  0  0  0
    4.8000    0.0000    0.0000 C   0  0  0  0  0  0  0  0  0  0  0  0
    5.6000    1.3856    0.0000 O   0  0  0  0  0  0  0  0  0  0  0  0
    5.6000   -1.3856    0.0000 O   0  0  0  0  0  0  0  0  0  0  0  0
    7.2000   -1.3856    0.0000 H   0  0  0  0  0  0  0  0  0  0  0  0
    3.2000   -1.6000    0.0000 H   0  0  0  0  0  0  0  0  0  0  0  0
    3.2000    1.6000    0.0000 H   0  0  0  0  0  0  0  0  0  0  0  0
    1.6000   -1.6000    0.0000 H   0  0  0  0  0  0  0  0  0  0  0  0
    1.6000    1.6000    0.0000 H   0  0  0  0  0  0  0  0  0  0  0  0
    0.0000    1.6000    0.0000 H   0  0  0  0  0  0  0  0  0  0  0  0
    0.0000   -1.6000    0.0000 H   0  0  0  0  0  0  0  0  0  0  0  0
   -1.6000   -1.6000    0.0000 H   0  0  0  0  0  0  0  0  0  0  0  0
   -1.6000    1.6000    0.0000 H   0  0  0  0  0  0  0  0  0  0  0  0
   -4.8000   -0.0000    0.0000 H   0  0  0  0  0  0  0  0  0  0  0  0
   -4.0000   -1.3856    0.0000 H   0  0  0  0  0  0  0  0  0  0  0  0
   -4.0000    1.3856    0.0000 H   0  0  0  0  0  0  0  0  0  0  0  0
  1  2  1  0  0  0  0
  2  3  1  0  0  0  0
  3  4  1  0  0  0  0
  4  5  1  0  0  0  0
  5  6  1  0  0  0  0
  6  7  2  0  0  0  0
  6  8  1  0  0  0  0
  8  9  1  0  0  0  0
  5 10  1  0  0  0  0
  5 11  1  0  0  0  0
  4 12  1  0  0  0  0
  4 13  1  0  0  0  0
  3 14  1  0  0  0  0
  3 15  1  0  0  0  0
  2 16  1  0  0  0  0
  2 17  1  0  0  0  0
  1 18  1  0  0  0  0
  1 19  1  0  0  0  0
  1 20  1  0  0  0  0
M  END
> <CAS>
142-62-1

> <NAME>
HEXANOIC ACID

> <preferred_name>
Hexanoic acid

> <iupac>
hexanoic acid

> <SMILES>
CCCCCC(O)=O

> <Canonical_QSARr>
CCCCCC(O)=O

> <InChI_Code_QSARr>
InChI=1S/C6H12O2/c1-2-3-4-5-6(7)8/h2-5H2,1H3,(H,7,8)

> <InChI Key_QSARr>
FUZZWVXGSFPDMH-UHFFFAOYSA-N

> <Salt_Solvent>
?

> <WS Temperature>
25

> <WS Reference>
YALKOWSKY,SH & HE,Y (2003)

> <dsstox_substance_id>
DTXSID7021607

> <LogMolar>
-1.0522

$$$$
142-84-7
  -INDIGO-01081615412D

 22 21  0  0  0  0  0  0  0  0999 V2000
   -1.3857    0.8000    0.0000 N   0  0  0  0  0  0  0  0  0  0  0  0
   -2.7712    0.0000    0.0000 C   0  0  0  0  0  0  0  0  0  0  0  0
   -4.1569   -0.8000    0.0000 C   0  0  0  0  0  0  0  0  0  0  0  0
   -5.5425   -1.6000    0.0000 C   0  0  0  0  0  0  0  0  0  0  0  0
   -6.9282   -2.4000    0.0000 H   0  0  0  0  0  0  0  0  0  0  0  0
   -6.9282   -0.8000    0.0000 H   0  0  0  0  0  0  0  0  0  0  0  0
   -5.5425   -3.2000    0.0000 H   0  0  0  0  0  0  0  0  0  0  0  0
   -4.9570    0.5856    0.0000 H   0  0  0  0  0  0  0  0  0  0  0  0
   -3.3570   -2.1856    0.0000 H   0  0  0  0  0  0  0  0  0  0  0  0
   -3.5713    1.3856    0.0000 H   0  0  0  0  0  0  0  0  0  0  0  0
   -1.9713   -1.3856    0.0000 H   0  0  0  0  0  0  0  0  0  0  0  0
   -0.0001    0.0000    0.0000 C   0  0  0  0  0  0  0  0  0  0  0  0
    1.3856   -0.8000    0.0000 C   0  0  0  0  0  0  0  0  0  0  0  0
    2.7713   -1.6000    0.0000 C   0  0  0  0  0  0  0  0  0  0  0  0
    4.1569   -2.4000    0.0000 H   0  0  0  0  0  0  0  0  0  0  0  0
    4.1569   -0.8000    0.0000 H   0  0  0  0  0  0  0  0  0  0  0  0
    2.7713   -3.2000    0.0000 H   0  0  0  0  0  0  0  0  0  0  0  0
    0.5857   -2.1856    0.0000 H   0  0  0  0  0  0  0  0  0  0  0  0
    2.1857    0.5856    0.0000 H   0  0  0  0  0  0  0  0  0  0  0  0
    0.8000    1.3856    0.0000 H   0  0  0  0  0  0  0  0  0  0  0  0
   -0.8000   -1.3856    0.0000 H   0  0  0  0  0  0  0  0  0  0  0  0
   -1.3857    2.4000    0.0000 H   0  0  0  0  0  0  0  0  0  0  0  0
  1  2  1  0  0  0  0
  2  3  1  0  0  0  0
  3  4  1  0  0  0  0
  4  5  1  0  0  0  0
  4  6  1  0  0  0  0
  4  7  1  0  0  0  0
  3  8  1  0  0  0  0
  3  9  1  0  0  0  0
  2 10  1  0  0  0  0
  2 11  1  0  0  0  0
  1 12  1  0  0  0  0
 12 13  1  0  0  0  0
 13 14  1  0  0  0  0
 14 15  1  0  0  0  0
 14 16  1  0  0  0  0
 14 17  1  0  0  0  0
 13 18  1  0  0  0  0
 13 19  1  0  0  0  0
 12 20  1  0  0  0  0
 12 21  1  0  0  0  0
  1 22  1  0  0  0  0
M  END
> <CAS>
142-84-7

> <NAME>
DIPROPYLAMINE

> <preferred_name>
Dipropylamine

> <iupac>
N-propylpropan-1-amine

> <SMILES>
CCCNCCC

> <Canonical_QSARr>
CCCNCCC

> <InChI_Code_QSARr>
InChI=1S/C6H15N/c1-3-5-7-6-4-2/h7H,3-6H2,1-2H3

> <InChI Key_QSARr>
WEHWNAOGRSTTBQ-UHFFFAOYSA-N

> <Salt_Solvent>
?

> <WS Temperature>
25

> <WS Reference>
KUHNE,R ET AL. (1995)

> <dsstox_substance_id>
DTXSID2025185

> <LogMolar>
-0.2372

$$$$
143-08-8
  -INDIGO-01081615412D

 30 29  0  0  0  0  0  0  0  0999 V2000
   -6.4001   -0.0000    0.0000 C   0  0  0  0  0  0  0  0  0  0  0  0
   -4.8000   -0.0000    0.0000 C   0  0  0  0  0  0  0  0  0  0  0  0
   -3.2001    0.0000    0.0000 C   0  0  0  0  0  0  0  0  0  0  0  0
   -1.5999    0.0000    0.0000 C   0  0  0  0  0  0  0  0  0  0  0  0
   -0.0000    0.0000    0.0000 C   0  0  0  0  0  0  0  0  0  0  0  0
    1.6001    0.0000    0.0000 C   0  0  0  0  0  0  0  0  0  0  0  0
    3.2000    0.0000    0.0000 C   0  0  0  0  0  0  0  0  0  0  0  0
    4.7999    0.0000    0.0000 C   0  0  0  0  0  0  0  0  0  0  0  0
    6.4000    0.0000    0.0000 C   0  0  0  0  0  0  0  0  0  0  0  0
    7.9999    0.0000    0.0000 O   0  0  0  0  0  0  0  0  0  0  0  0
    8.8000    1.3856    0.0000 H   0  0  0  0  0  0  0  0  0  0  0  0
    6.4000   -1.6000    0.0000 H   0  0  0  0  0  0  0  0  0  0  0  0
    6.4000    1.6000    0.0000 H   0  0  0  0  0  0  0  0  0  0  0  0
    4.7999    1.6000    0.0000 H   0  0  0  0  0  0  0  0  0  0  0  0
    4.7999   -1.6000    0.0000 H   0  0  0  0  0  0  0  0  0  0  0  0
    3.2000   -1.6000    0.0000 H   0  0  0  0  0  0  0  0  0  0  0  0
    3.2000    1.6000    0.0000 H   0  0  0  0  0  0  0  0  0  0  0  0
    1.6001   -1.6000    0.0000 H   0  0  0  0  0  0  0  0  0  0  0  0
    1.6001    1.6000    0.0000 H   0  0  0  0  0  0  0  0  0  0  0  0
   -0.0000    1.6000    0.0000 H   0  0  0  0  0  0  0  0  0  0  0  0
   -0.0000   -1.6000    0.0000 H   0  0  0  0  0  0  0  0  0  0  0  0
   -1.5999   -1.6000    0.0000 H   0  0  0  0  0  0  0  0  0  0  0  0
   -1.5999    1.6000    0.0000 H   0  0  0  0  0  0  0  0  0  0  0  0
   -3.2001    1.6000    0.0000 H   0  0  0  0  0  0  0  0  0  0  0  0
   -3.2001   -1.6000    0.0000 H   0  0  0  0  0  0  0  0  0  0  0  0
   -4.8000   -1.6000    0.0000 H   0  0  0  0  0  0  0  0  0  0  0  0
   -4.8000    1.6000    0.0000 H   0  0  0  0  0  0  0  0  0  0  0  0
   -8.0000   -0.0000    0.0000 H   0  0  0  0  0  0  0  0  0  0  0  0
   -7.1999   -1.3856    0.0000 H   0  0  0  0  0  0  0  0  0  0  0  0
   -7.1999    1.3856    0.0000 H   0  0  0  0  0  0  0  0  0  0  0  0
  1  2  1  0  0  0  0
  2  3  1  0  0  0  0
  3  4  1  0  0  0  0
  4  5  1  0  0  0  0
  5  6  1  0  0  0  0
  6  7  1  0  0  0  0
  7  8  1  0  0  0  0
  8  9  1  0  0  0  0
  9 10  1  0  0  0  0
 10 11  1  0  0  0  0
  9 12  1  0  0  0  0
  9 13  1  0  0  0  0
  8 14  1  0  0  0  0
  8 15  1  0  0  0  0
  7 16  1  0  0  0  0
  7 17  1  0  0  0  0
  6 18  1  0  0  0  0
  6 19  1  0  0  0  0
  5 20  1  0  0  0  0
  5 21  1  0  0  0  0
  4 22  1  0  0  0  0
  4 23  1  0  0  0  0
  3 24  1  0  0  0  0
  3 25  1  0  0  0  0
  2 26  1  0  0  0  0
  2 27  1  0  0  0  0
  1 28  1  0  0  0  0
  1 29  1  0  0  0  0
  1 30  1  0  0  0  0
M  END
> <CAS>
143-08-8

> <NAME>
1-NONANOL

> <preferred_name>
1-Nonanol

> <iupac>
nonan-1-ol

> <SMILES>
CCCCCCCCCO

> <Canonical_QSARr>
CCCCCCCCCO

> <InChI_Code_QSARr>
InChI=1S/C9H20O/c1-2-3-4-5-6-7-8-9-10/h10H,2-9H2,1H3

> <InChI Key_QSARr>
ZWRUINPWMLAQRD-UHFFFAOYSA-N

> <Salt_Solvent>
?

> <WS Temperature>
25

> <WS Reference>
BARTON,AFM (1984)

> <dsstox_substance_id>
DTXSID6022008

> <LogMolar>
-3.013

$$$$
144-16-1
  -INDIGO-01081615412D

 22 22  0  0  0  0  0  0  0  0999 V2000
   -1.3856   -0.8000    0.0000 O   0  0  0  0  0  0  0  0  0  0  0  0
   -1.0530   -2.3650    0.0000 C   0  0  0  0  0  0  0  0  0  0  0  0
   -2.6442   -2.5323    0.0000 H   0  0  0  0  0  0  0  0  0  0  0  0
   -1.0530   -3.9650    0.0000 H   0  0  0  0  0  0  0  0  0  0  0  0
    0.5383   -2.5323    0.0000 O   0  0  0  0  0  0  0  0  0  0  0  0
    1.1890   -1.0706    0.0000 C   0  0  0  0  0  0  0  0  0  0  0  0
    2.7541   -0.7379    0.0000 O   0  0  0  0  0  0  0  0  0  0  0  0
    0.0000   -0.0000    0.0000 C   0  0  0  0  0  0  0  0  0  0  0  0
    0.9851    1.2608    0.0000 C   0  0  0  0  0  0  0  0  0  0  0  0
    1.9701    2.5217    0.0000 C   0  0  0  0  0  0  0  0  0  0  0  0
    1.3707    4.0052    0.0000 O   0  0  0  0  0  0  0  0  0  0  0  0
    3.5546    2.2989    0.0000 O   0  0  0  0  0  0  0  0  0  0  0  0
    4.5396    3.5598    0.0000 H   0  0  0  0  0  0  0  0  0  0  0  0
    0.5055    2.0010    0.0000 H   0  0  0  0  0  0  0  0  0  0  0  0
    2.2459    0.2758    0.0000 H   0  0  0  0  0  0  0  0  0  0  0  0
   -0.9405    1.2944    0.0000 C   0  0  0  0  0  0  0  0  0  0  0  0
   -1.8810    2.5888    0.0000 C   0  0  0  0  0  0  0  0  0  0  0  0
   -1.2302    4.0505    0.0000 O   0  0  0  0  0  0  0  0  0  0  0  0
   -3.4721    2.4216    0.0000 O   0  0  0  0  0  0  0  0  0  0  0  0
   -4.4126    3.7160    0.0000 H   0  0  0  0  0  0  0  0  0  0  0  0
   -2.2349    0.3540    0.0000 H   0  0  0  0  0  0  0  0  0  0  0  0
   -0.4277    2.0120    0.0000 H   0  0  0  0  0  0  0  0  0  0  0  0
  1  2  1  0  0  0  0
  2  3  1  0  0  0  0
  2  4  1  0  0  0  0
  2  5  1  0  0  0  0
  5  6  1  0  0  0  0
  6  7  2  0  0  0  0
  6  8  1  0  0  0  0
  8  1  1  0  0  0  0
  8  9  1  0  0  0  0
  9 10  1  0  0  0  0
 10 11  2  0  0  0  0
 10 12  1  0  0  0  0
 12 13  1  0  0  0  0
  9 14  1  0  0  0  0
  9 15  1  0  0  0  0
  8 16  1  0  0  0  0
 16 17  1  0  0  0  0
 17 18  2  0  0  0  0
 17 19  1  0  0  0  0
 19 20  1  0  0  0  0
 16 21  1  0  0  0  0
 16 22  1  0  0  0  0
M  END
> <CAS>
144-16-1

> <NAME>
1,3-Dioxolane-4,4-diacetic acid, 5-oxo-

> <preferred_name>
Anhydromethylenecitric acid

> <iupac>
2-[4-(carboxymethyl)-5-oxo-1,3-dioxolan-4-yl]acetic acid

> <SMILES>
OC(=O)CC1(CC(O)=O)OCOC1=O

> <Canonical_QSARr>
OC(=O)CC1(CC(O)=O)OCOC1=O

> <InChI_Code_QSARr>
InChI=1S/C7H8O7/c8-4(9)1-7(2-5(10)11)6(12)13-3-14-7/h1-3H2,(H,8,9)(H,10,11)

> <InChI Key_QSARr>
PXPMCAKTYKAROX-UHFFFAOYSA-N

> <Salt_Solvent>
?

> <WS Temperature>


> <WS Reference>
BEILSTEIN

> <dsstox_substance_id>
DTXSID60162592

> <LogMolar>
-0.611

$$$$
145-73-3
  -INDIGO-01081615412D

 23 24  0  0  0  0  0  0  0  0999 V2000
   -0.0000   -0.0000    0.0000 C   0  0  0  0  0  0  0  0  0  0  0  0
   -1.4800   -0.6078    0.0000 C   0  0  0  0  0  0  0  0  0  0  0  0
   -1.6938   -2.1935    0.0000 O   0  0  0  0  0  0  0  0  0  0  0  0
   -3.1737   -2.8013    0.0000 H   0  0  0  0  0  0  0  0  0  0  0  0
   -2.7465    0.3700    0.0000 O   0  0  0  0  0  0  0  0  0  0  0  0
   -0.0448    1.4507    0.0000 C   0  0  0  0  0  0  0  0  0  0  0  0
   -1.2743    2.4747    0.0000 C   0  0  0  0  0  0  0  0  0  0  0  0
    0.2283    2.6170    0.0000 C   0  0  0  0  0  0  0  0  0  0  0  0
    1.4474    3.6531    0.0000 H   0  0  0  0  0  0  0  0  0  0  0  0
   -0.3939    4.0910    0.0000 H   0  0  0  0  0  0  0  0  0  0  0  0
    1.6745    1.7076    0.0000 C   0  0  0  0  0  0  0  0  0  0  0  0
    2.7647    2.7691    0.0000 O   0  0  0  0  0  0  0  0  0  0  0  0
    3.1421    1.0703    0.0000 H   0  0  0  0  0  0  0  0  0  0  0  0
    1.6413    0.0985    0.0000 C   0  0  0  0  0  0  0  0  0  0  0  0
    2.2379   -1.3860    0.0000 C   0  0  0  0  0  0  0  0  0  0  0  0
    3.8219   -1.6116    0.0000 O   0  0  0  0  0  0  0  0  0  0  0  0
    4.4186   -3.0962    0.0000 H   0  0  0  0  0  0  0  0  0  0  0  0
    1.2505   -2.6451    0.0000 O   0  0  0  0  0  0  0  0  0  0  0  0
    3.2412    0.1084    0.0000 H   0  0  0  0  0  0  0  0  0  0  0  0
   -1.8305    3.9750    0.0000 H   0  0  0  0  0  0  0  0  0  0  0  0
   -2.5805    1.5508    0.0000 H   0  0  0  0  0  0  0  0  0  0  0  0
   -1.4831    0.7496    0.0000 H   0  0  0  0  0  0  0  0  0  0  0  0
    0.0804   -1.5980    0.0000 H   0  0  0  0  0  0  0  0  0  0  0  0
  1  2  1  0  0  0  0
  2  3  1  0  0  0  0
  3  4  1  0  0  0  0
  2  5  2  0  0  0  0
  1  6  1  0  0  0  0
  6  7  1  0  0  0  0
  7  8  1  0  0  0  0
  8  9  1  0  0  0  0
  8 10  1  0  0  0  0
  8 11  1  0  0  0  0
 11 12  1  0  0  0  0
 12  6  1  0  0  0  0
 11 13  1  0  0  0  0
 11 14  1  0  0  0  0
 14  1  1  0  0  0  0
 14 15  1  0  0  0  0
 15 16  1  0  0  0  0
 16 17  1  0  0  0  0
 15 18  2  0  0  0  0
 14 19  1  0  0  0  0
  7 20  1  0  0  0  0
  7 21  1  0  0  0  0
  6 22  1  0  0  0  0
  1 23  1  0  0  0  0
M  END
> <CAS>
145-73-3

> <NAME>
ENDOTHAL

> <preferred_name>
Endothal

> <iupac>
7-oxabicyclo[2.2.1]heptane-2,3-dicarboxylic acid

> <SMILES>
OC(=O)C1C(C2CCC1O2)C(O)=O

> <Canonical_QSARr>
OC(=O)C1C(C2CCC1O2)C(O)=O

> <InChI_Code_QSARr>
InChI=1S/C8H10O5/c9-7(10)5-3-1-2-4(13-3)6(5)8(11)12/h3-6H,1-2H2,(H,9,10)(H,11,12)

> <InChI Key_QSARr>
GXEKYRXVRROBEV-UHFFFAOYSA-N

> <Salt_Solvent>
?

> <WS Temperature>
20

> <WS Reference>
TOMLIN,C (2003)

> <dsstox_substance_id>
DTXSID7024081

> <LogMolar>
-0.2699

$$$$
148-56-1
  -INDIGO-01081615412D

 26 27  0  0  0  0  0  0  0  0999 V2000
    4.1569   -0.8000    0.0000 S   0  0  0  0  0  0  0  0  0  0  0  0
    2.7712    0.0000    0.0000 C   0  0  0  0  0  0  0  0  0  0  0  0
    1.3857   -0.8000    0.0000 C   0  0  0  0  0  0  0  0  0  0  0  0
    0.0001    0.0000    0.0000 C   0  0  0  0  0  0  0  0  0  0  0  0
    0.0001    1.6000    0.0000 C   0  0  0  0  0  0  0  0  0  0  0  0
   -1.3856    2.4000    0.0000 C   0  0  0  0  0  0  0  0  0  0  0  0
   -2.7713    3.2000    0.0000 F   0  0  0  0  0  0  0  0  0  0  0  0
   -1.3856    4.0000    0.0000 F   0  0  0  0  0  0  0  0  0  0  0  0
   -2.7713    1.6000    0.0000 F   0  0  0  0  0  0  0  0  0  0  0  0
    1.3856    2.4000    0.0000 C   0  0  0  0  0  0  0  0  0  0  0  0
    1.3856    4.0000    0.0000 H   0  0  0  0  0  0  0  0  0  0  0  0
    2.7712    1.6000    0.0000 C   0  0  0  0  0  0  0  0  0  0  0  0
    4.1569    2.4000    0.0000 N   0  0  0  0  0  0  0  0  0  0  0  0
    4.1569    4.0000    0.0000 H   0  0  0  0  0  0  0  0  0  0  0  0
    5.5425    1.6000    0.0000 C   0  0  0  0  0  0  0  0  0  0  0  0
    6.9282    2.4000    0.0000 H   0  0  0  0  0  0  0  0  0  0  0  0
    5.5425    0.0000    0.0000 N   0  0  0  0  0  0  0  0  0  0  0  0
   -1.3856   -0.8000    0.0000 S   0  0  0  0  0  0  0  0  0  0  0  0
   -2.7713   -1.6000    0.0000 N   0  0  0  0  0  0  0  0  0  0  0  0
   -2.7713   -3.2000    0.0000 H   0  0  0  0  0  0  0  0  0  0  0  0
   -4.1569   -0.8000    0.0000 H   0  0  0  0  0  0  0  0  0  0  0  0
   -2.1857    0.5856    0.0000 O   0  0  0  0  0  0  0  0  0  0  0  0
   -0.5857   -2.1856    0.0000 O   0  0  0  0  0  0  0  0  0  0  0  0
    1.3857   -2.4000    0.0000 H   0  0  0  0  0  0  0  0  0  0  0  0
    3.1285   -2.0257    0.0000 O   0  0  0  0  0  0  0  0  0  0  0  0
    5.1853   -2.0257    0.0000 O   0  0  0  0  0  0  0  0  0  0  0  0
  1  2  1  0  0  0  0
  2  3  4  0  0  0  0
  3  4  4  0  0  0  0
  4  5  4  0  0  0  0
  5  6  1  0  0  0  0
  6  7  1  0  0  0  0
  6  8  1  0  0  0  0
  6  9  1  0  0  0  0
  5 10  4  0  0  0  0
 10 11  1  0  0  0  0
 10 12  4  0  0  0  0
 12  2  4  0  0  0  0
 12 13  1  0  0  0  0
 13 14  1  0  0  0  0
 13 15  1  0  0  0  0
 15 16  1  0  0  0  0
 15 17  2  0  0  0  0
 17  1  1  0  0  0  0
  4 18  1  0  0  0  0
 18 19  1  0  0  0  0
 19 20  1  0  0  0  0
 19 21  1  0  0  0  0
 18 22  2  0  0  0  0
 18 23  2  0  0  0  0
  3 24  1  0  0  0  0
  1 25  2  0  0  0  0
  1 26  2  0  0  0  0
M  END
> <CAS>
148-56-1

> <NAME>
FLUMETHAZIDE

> <preferred_name>
Flumethiazide

> <iupac>
1,1-dioxo-6-(trifluoromethyl)-4H-benzo[e][1,2,4]thiadiazine-7-sulfonamide

> <SMILES>
NS(=O)(=O)c1cc2c(cc1C(F)(F)F)NC=NS2(=O)=O

> <Canonical_QSARr>
NS(=O)(=O)c1cc2c(cc1C(F)(F)F)NC=NS2(=O)=O

> <InChI_Code_QSARr>
InChI=1S/C8H6F3N3O4S2/c9-8(10,11)4-1-5-7(2-6(4)19(12,15)16)20(17,18)14-3-13-5/h1-3H,(H,13,14)(H2,12,15,16)

> <InChI Key_QSARr>
RGUQWGXAYZNLMI-UHFFFAOYSA-N

> <Salt_Solvent>
?

> <WS Temperature>
25

> <WS Reference>
MERCK INDEX (1996); boiling water

> <dsstox_substance_id>
DTXSID60163862

> <LogMolar>
-0.8186

$$$$
149-30-4
  -INDIGO-01081615412D

 15 16  0  0  0  0  0  0  0  0999 V2000
    3.9179    1.3383    0.0000 S   0  0  0  0  0  0  0  0  0  0  0  0
    2.5323    0.5383    0.0000 C   0  0  0  0  0  0  0  0  0  0  0  0
    2.3651   -1.0530    0.0000 S   0  0  0  1  0  0  0  0  0  0  0  0
    0.8001   -1.3856    0.0000 C   0  0  0  0  0  0  0  0  0  0  0  0
   -0.0000   -2.7713    0.0000 C   0  0  0  0  0  0  0  0  0  0  0  0
   -1.6000   -2.7713    0.0000 C   0  0  0  0  0  0  0  0  0  0  0  0
   -2.3999   -1.3856    0.0000 C   0  0  0  0  0  0  0  0  0  0  0  0
   -1.6000   -0.0000    0.0000 C   0  0  0  0  0  0  0  0  0  0  0  0
   -2.3999    1.3856    0.0000 H   0  0  0  0  0  0  0  0  0  0  0  0
   -0.0000   -0.0000    0.0000 C   0  0  0  0  0  0  0  0  0  0  0  0
    1.0706    1.1890    0.0000 N   0  0  0  1  0  0  0  0  0  0  0  0
   -4.0000   -1.3856    0.0000 H   0  0  0  0  0  0  0  0  0  0  0  0
   -2.3999   -4.1569    0.0000 H   0  0  0  0  0  0  0  0  0  0  0  0
    0.8001   -4.1569    0.0000 H   0  0  0  0  0  0  0  0  0  0  0  0
    5.3036    0.5383    0.0000 H   0  0  0  0  0  0  0  0  0  0  0  0
  1  2  1  0  0  0  0
  2  3  4  0  0  0  0
  3  4  4  0  0  0  0
  4  5  4  0  0  0  0
  5  6  4  0  0  0  0
  6  7  4  0  0  0  0
  7  8  4  0  0  0  0
  8  9  1  0  0  0  0
  8 10  4  0  0  0  0
 10  4  4  0  0  0  0
 10 11  4  0  0  0  0
 11  2  4  0  0  0  0
  7 12  1  0  0  0  0
  6 13  1  0  0  0  0
  5 14  1  0  0  0  0
  1 15  1  0  0  0  0
M  END
> <CAS>
149-30-4

> <NAME>
2-MERCAPTOBENZOTHIAZOLE

> <preferred_name>
2-Mercaptobenzothiazole

> <iupac>
1,3-benzothiazole-2-thiol

> <SMILES>
Sc1[n]c2ccccc2[s]1

> <Canonical_QSARr>
Sc1[n]c2ccccc2[s]1

> <InChI_Code_QSARr>
InChI=1S/C7H5NS2/c9-7-8-5-3-1-2-4-6(5)10-7/h1-4H,(H,8,9)

> <InChI Key_QSARr>
YXIWHUQXZSMYRE-UHFFFAOYSA-N

> <Salt_Solvent>
?

> <WS Temperature>
24

> <WS Reference>
BROWNLEE,BG ET AL. (1992)

> <dsstox_substance_id>
DTXSID1020807

> <LogMolar>
-3.182

$$$$
150-13-0
  -INDIGO-01081615412D

 17 17  0  0  0  0  0  0  0  0999 V2000
    2.3999    1.3856    0.0000 O   0  0  0  0  0  0  0  0  0  0  0  0
    1.6000    0.0000    0.0000 C   0  0  0  0  0  0  0  0  0  0  0  0
    0.0000   -0.0000    0.0000 C   0  0  0  0  0  0  0  0  0  0  0  0
   -0.8001    1.3856    0.0000 C   0  0  0  0  0  0  0  0  0  0  0  0
    0.0000    2.7713    0.0000 H   0  0  0  0  0  0  0  0  0  0  0  0
   -2.4000    1.3856    0.0000 C   0  0  0  0  0  0  0  0  0  0  0  0
   -3.2000    2.7713    0.0000 H   0  0  0  0  0  0  0  0  0  0  0  0
   -3.2000   -0.0000    0.0000 C   0  0  0  0  0  0  0  0  0  0  0  0
   -4.8000   -0.0000    0.0000 N   0  0  0  0  0  0  0  0  0  0  0  0
   -5.6000    1.3856    0.0000 H   0  0  0  0  0  0  0  0  0  0  0  0
   -5.6000   -1.3856    0.0000 H   0  0  0  0  0  0  0  0  0  0  0  0
   -2.4000   -1.3856    0.0000 C   0  0  0  0  0  0  0  0  0  0  0  0
   -3.2000   -2.7713    0.0000 H   0  0  0  0  0  0  0  0  0  0  0  0
   -0.8001   -1.3856    0.0000 C   0  0  0  0  0  0  0  0  0  0  0  0
    0.0000   -2.7713    0.0000 H   0  0  0  0  0  0  0  0  0  0  0  0
    2.4001   -1.3856    0.0000 O   0  0  0  0  0  0  0  0  0  0  0  0
    4.0000   -1.3856    0.0000 H   0  0  0  0  0  0  0  0  0  0  0  0
  1  2  2  0  0  0  0
  2  3  1  0  0  0  0
  3  4  4  0  0  0  0
  4  5  1  0  0  0  0
  4  6  4  0  0  0  0
  6  7  1  0  0  0  0
  6  8  4  0  0  0  0
  8  9  1  0  0  0  0
  9 10  1  0  0  0  0
  9 11  1  0  0  0  0
  8 12  4  0  0  0  0
 12 13  1  0  0  0  0
 12 14  4  0  0  0  0
 14  3  4  0  0  0  0
 14 15  1  0  0  0  0
  2 16  1  0  0  0  0
 16 17  1  0  0  0  0
M  END
> <CAS>
150-13-0

> <NAME>
4-AMINOBENZOIC ACID

> <preferred_name>
4-Aminobenzoic acid

> <iupac>
4-aminobenzoic acid

> <SMILES>
Nc1ccc(cc1)C(O)=O

> <Canonical_QSARr>
Nc1ccc(cc1)C(O)=O

> <InChI_Code_QSARr>
InChI=1S/C7H7NO2/c8-6-3-1-5(2-4-6)7(9)10/h1-4H,8H2,(H,9,10)

> <InChI Key_QSARr>
ALYNCZNDIQEVRV-UHFFFAOYSA-N

> <Salt_Solvent>
?

> <WS Temperature>
30

> <WS Reference>
YALKOWSKY,SH & HE,Y (2003)

> <dsstox_substance_id>
DTXSID6024466

> <LogMolar>
-1.3511

$$$$
150-76-5
  -INDIGO-01081615412D

 17 17  0  0  0  0  0  0  0  0999 V2000
    2.4001   -1.3856    0.0000 C   0  0  0  0  0  0  0  0  0  0  0  0
    1.6000    0.0000    0.0000 O   0  0  0  0  0  0  0  0  0  0  0  0
    0.0000   -0.0000    0.0000 C   0  0  0  0  0  0  0  0  0  0  0  0
   -0.8001    1.3856    0.0000 C   0  0  0  0  0  0  0  0  0  0  0  0
    0.0000    2.7713    0.0000 H   0  0  0  0  0  0  0  0  0  0  0  0
   -2.4000    1.3856    0.0000 C   0  0  0  0  0  0  0  0  0  0  0  0
   -3.2000    2.7713    0.0000 H   0  0  0  0  0  0  0  0  0  0  0  0
   -3.2000   -0.0000    0.0000 C   0  0  0  0  0  0  0  0  0  0  0  0
   -4.8000   -0.0000    0.0000 O   0  0  0  0  0  0  0  0  0  0  0  0
   -5.6000    1.3856    0.0000 H   0  0  0  0  0  0  0  0  0  0  0  0
   -2.4000   -1.3856    0.0000 C   0  0  0  0  0  0  0  0  0  0  0  0
   -3.2000   -2.7713    0.0000 H   0  0  0  0  0  0  0  0  0  0  0  0
   -0.8001   -1.3856    0.0000 C   0  0  0  0  0  0  0  0  0  0  0  0
    0.0000   -2.7713    0.0000 H   0  0  0  0  0  0  0  0  0  0  0  0
    4.0000   -1.3856    0.0000 H   0  0  0  0  0  0  0  0  0  0  0  0
    3.2000   -2.7713    0.0000 H   0  0  0  0  0  0  0  0  0  0  0  0
    3.2000    0.0000    0.0000 H   0  0  0  0  0  0  0  0  0  0  0  0
  1  2  1  0  0  0  0
  2  3  1  0  0  0  0
  3  4  4  0  0  0  0
  4  5  1  0  0  0  0
  4  6  4  0  0  0  0
  6  7  1  0  0  0  0
  6  8  4  0  0  0  0
  8  9  1  0  0  0  0
  9 10  1  0  0  0  0
  8 11  4  0  0  0  0
 11 12  1  0  0  0  0
 11 13  4  0  0  0  0
 13  3  4  0  0  0  0
 13 14  1  0  0  0  0
  1 15  1  0  0  0  0
  1 16  1  0  0  0  0
  1 17  1  0  0  0  0
M  END
> <CAS>
150-76-5

> <NAME>
P-METHOXYPHENOL

> <preferred_name>
4-Methoxyphenol

> <iupac>
4-methoxyphenol

> <SMILES>
COc1ccc(O)cc1

> <Canonical_QSARr>
COc1ccc(O)cc1

> <InChI_Code_QSARr>
InChI=1S/C7H8O2/c1-9-7-4-2-6(8)3-5-7/h2-5,8H,1H3

> <InChI Key_QSARr>
NWVVVBRKAWDGAB-UHFFFAOYSA-N

> <Salt_Solvent>
?

> <WS Temperature>
25

> <WS Reference>
CHEMICALS INSPECTION AND TESTING INSTITU (1992)

> <dsstox_substance_id>
DTXSID4020828

> <LogMolar>
-0.4919

$$$$
151-50-8
  -INDIGO-01081615412D

  3  2  0  0  0  0  0  0  0  0999 V2000
    0.0000   -0.0000    0.0000 C   0  0  0  0  0  0  0  0  0  0  0  0
   -1.6000   -0.0000    0.0000 N   0  0  0  0  0  0  0  0  0  0  0  0
    1.6000   -0.0000    0.0000 H   0  0  0  0  0  0  0  0  0  0  0  0
  1  2  3  0  0  0  0
  1  3  1  0  0  0  0
M  END
> <CAS>
151-50-8

> <NAME>
POTASSIUM CYANIDE

> <preferred_name>
Potassium cyanide

> <iupac>
potassium cyanide

> <SMILES>
[K+].[C-]#N

> <Canonical_QSARr>
C#N

> <InChI_Code_QSARr>
InChI=1S/CHN/c1-2/h1H

> <InChI Key_QSARr>
LELOWRISYMNNSU-UHFFFAOYSA-N

> <Salt_Solvent>
[K+]

> <WS Temperature>


> <WS Reference>
KENAGA,EE (1980)

> <dsstox_substance_id>
DTXSID0024268

> <LogMolar>
1.0436

$$$$
152-93-2
  -INDIGO-01081615412D

 37 38  0  0  0  0  0  0  0  0999 V2000
    6.0014   -0.7506    0.0000 C   0  0  0  0  0  0  0  0  0  0  0  0
    4.4258   -1.0285    0.0000 O   0  0  0  0  0  0  0  0  0  0  0  0
    3.2001    0.0000    0.0000 C   0  0  0  0  0  0  0  0  0  0  0  0
    2.3999    1.3856    0.0000 C   0  0  0  0  0  0  0  0  0  0  0  0
    3.9034    1.9329    0.0000 O   0  0  0  0  0  0  0  0  0  0  0  0
    4.1813    3.5086    0.0000 H   0  0  0  0  0  0  0  0  0  0  0  0
    2.1221    2.9613    0.0000 H   0  0  0  0  0  0  0  0  0  0  0  0
    0.8000    1.3856    0.0000 C   0  0  0  0  0  0  0  0  0  0  0  0
    1.0779    2.9613    0.0000 O   0  0  0  0  0  0  0  0  0  0  0  0
   -0.1478    3.9898    0.0000 H   0  0  0  0  0  0  0  0  0  0  0  0
   -0.7035    1.9329    0.0000 H   0  0  0  0  0  0  0  0  0  0  0  0
    0.0000    0.0000    0.0000 C   0  0  0  0  0  0  0  0  0  0  0  0
   -1.2256   -1.0285    0.0000 O   0  0  0  0  0  0  0  0  0  0  0  0
   -2.7292   -0.4813    0.0000 H   0  0  0  0  0  0  0  0  0  0  0  0
   -1.2256    1.0285    0.0000 H   0  0  0  0  0  0  0  0  0  0  0  0
    0.8000   -1.3856    0.0000 C   0  0  0  0  0  0  0  0  0  0  0  0
    1.0779   -2.9613    0.0000 C   0  0  0  0  0  0  0  0  0  0  0  0
    1.3557   -4.5370    0.0000 O   0  0  0  0  0  0  0  0  0  0  0  0
    0.1300   -5.5655    0.0000 H   0  0  0  0  0  0  0  0  0  0  0  0
   -0.4977   -3.2392    0.0000 H   0  0  0  0  0  0  0  0  0  0  0  0
    2.6534   -2.6835    0.0000 H   0  0  0  0  0  0  0  0  0  0  0  0
   -0.7035   -1.9329    0.0000 H   0  0  0  0  0  0  0  0  0  0  0  0
    2.3999   -1.3856    0.0000 O   0  0  0  0  0  0  0  0  0  0  0  0
    4.4258    1.0285    0.0000 H   0  0  0  0  0  0  0  0  0  0  0  0
    6.5487    0.7529    0.0000 C   0  0  0  0  0  0  0  0  0  0  0  0
    5.5202    1.9786    0.0000 O   0  0  0  0  0  0  0  0  0  0  0  0
    8.1243    1.0307    0.0000 N   0  0  0  0  0  0  0  0  0  0  0  0
    8.6716    2.5342    0.0000 H   0  0  0  0  0  0  0  0  0  0  0  0
    9.1528   -0.1949    0.0000 C   0  0  0  0  0  0  0  0  0  0  0  0
   10.7284    0.0828    0.0000 N   0  0  0  0  0  0  0  0  0  0  0  0
   11.7569   -1.1428    0.0000 H   0  0  0  0  0  0  0  0  0  0  0  0
   11.2757    1.5864    0.0000 H   0  0  0  0  0  0  0  0  0  0  0  0
    8.6055   -1.6985    0.0000 N   0  0  0  0  0  0  0  0  0  0  0  0
    7.0299   -1.9762    0.0000 C   0  0  0  0  0  0  0  0  0  0  0  0
    6.4826   -3.4798    0.0000 N   0  0  0  0  0  0  0  0  0  0  0  0
    7.5111   -4.7055    0.0000 H   0  0  0  0  0  0  0  0  0  0  0  0
    4.9070   -3.7577    0.0000 H   0  0  0  0  0  0  0  0  0  0  0  0
  1  2  1  0  0  0  0
  2  3  1  0  0  0  0
  3  4  1  0  0  0  0
  4  5  1  0  0  0  0
  5  6  1  0  0  0  0
  4  7  1  0  0  0  0
  4  8  1  0  0  0  0
  8  9  1  0  0  0  0
  9 10  1  0  0  0  0
  8 11  1  0  0  0  0
  8 12  1  0  0  0  0
 12 13  1  0  0  0  0
 13 14  1  0  0  0  0
 12 15  1  0  0  0  0
 12 16  1  0  0  0  0
 16 17  1  0  0  0  0
 17 18  1  0  0  0  0
 18 19  1  0  0  0  0
 17 20  1  0  0  0  0
 17 21  1  0  0  0  0
 16 22  1  0  0  0  0
 16 23  1  0  0  0  0
 23  3  1  0  0  0  0
  3 24  1  0  0  0  0
  1 25  1  0  0  0  0
 25 26  2  0  0  0  0
 25 27  1  0  0  0  0
 27 28  1  0  0  0  0
 27 29  1  0  0  0  0
 29 30  1  0  0  0  0
 30 31  1  0  0  0  0
 30 32  1  0  0  0  0
 29 33  2  0  0  0  0
 33 34  1  0  0  0  0
 34  1  2  0  0  0  0
 34 35  1  0  0  0  0
 35 36  1  0  0  0  0
 35 37  1  0  0  0  0
M  END
> <CAS>
152-93-2

> <NAME>
Vicine

> <preferred_name>


> <iupac>


> <SMILES>
NC1NC(=O)C(O[C@@H]2O[C@H](CO)[C@@H](O)[C@H](O)[C@H]2O)=C(N)N=1

> <Canonical_QSARr>
NC1NC(=O)C(OC2OC(CO)C(O)C(O)C2O)=C(N)N=1

> <InChI_Code_QSARr>
InChI=1S/C10H16N4O7/c11-7-6(8(19)14-10(12)13-7)21-9-5(18)4(17)3(16)2(1-15)20-9/h2-5,9,15-18H,1H2,(H5,11,12,13,14,19)

> <InChI Key_QSARr>
KGNGTSCIQCLKEH-UHFFFAOYSA-N

> <Salt_Solvent>
?

> <WS Temperature>


> <WS Reference>
MERCK INDEX (1996)

> <dsstox_substance_id>


> <LogMolar>
-1.4832

$$$$
156-59-2, 156-60-5
  -INDIGO-01081615412D

  6  5  0  0  0  0  0  0  0  0999 V2000
   -0.8000   -1.3856    0.0000 Cl  0  0  0  0  0  0  0  0  0  0  0  0
    0.0000    0.0000    0.0000 C   0  0  0  0  0  0  0  0  0  0  0  0
    1.6000    0.0000    0.0000 C   0  0  0  0  0  0  0  0  0  0  0  0
    2.4000    1.3856    0.0000 Cl  0  0  0  0  0  0  0  0  0  0  0  0
    2.4000   -1.3856    0.0000 H   0  0  0  0  0  0  0  0  0  0  0  0
   -0.8000    1.3856    0.0000 H   0  0  0  0  0  0  0  0  0  0  0  0
  1  2  1  0  0  0  0
  2  3  2  0  0  0  0
  3  4  1  0  0  0  0
  3  5  1  0  0  0  0
  2  6  1  0  0  0  0
M  END
> <CAS>
156-59-2, 156-60-5

> <NAME>
1,2-DICHLOROETHENE (CIS), 1,2-DICHLOROETHENE (TRANS)

> <preferred_name>
(Z)-1,2-Dichloroethylene

> <iupac>
(Z)-1,2-dichloroethene

> <SMILES>
Cl/C=C\Cl

> <Canonical_QSARr>
ClC=CCl

> <InChI_Code_QSARr>
InChI=1S/C2H2Cl2/c3-1-2-4/h1-2H/b2-1+

> <InChI Key_QSARr>
KFUSEUYYWQURPO-OWOJBTEDSA-N

> <Salt_Solvent>
?

> <WS Temperature>
25

> <WS Reference>
HORVATH,AL ET AL. (1999)

> <dsstox_substance_id>
DTXSID2024030

> <LogMolar>
-1.3148

$$$$
192-97-2
  -INDIGO-01081615412D

 32 36  0  0  0  0  0  0  0  0999 V2000
   -0.0001    2.7713    0.0000 C   0  0  0  0  0  0  0  0  0  0  0  0
   -0.8001    1.3857    0.0000 C   0  0  0  0  0  0  0  0  0  0  0  0
   -0.0001   -0.0001    0.0000 C   0  0  0  0  0  0  0  0  0  0  0  0
   -0.8001   -1.3857    0.0000 C   0  0  0  0  0  0  0  0  0  0  0  0
   -2.4000   -1.3857    0.0000 C   0  0  0  0  0  0  0  0  0  0  0  0
   -3.2000   -0.0001    0.0000 C   0  0  0  0  0  0  0  0  0  0  0  0
   -2.4000    1.3857    0.0000 C   0  0  0  0  0  0  0  0  0  0  0  0
   -3.2000    2.7713    0.0000 C   0  0  0  0  0  0  0  0  0  0  0  0
   -2.4000    4.1569    0.0000 C   0  0  0  0  0  0  0  0  0  0  0  0
   -0.8001    4.1569    0.0000 C   0  0  0  0  0  0  0  0  0  0  0  0
   -0.0001    5.5426    0.0000 H   0  0  0  0  0  0  0  0  0  0  0  0
   -3.2000    5.5426    0.0000 H   0  0  0  0  0  0  0  0  0  0  0  0
   -4.8000    2.7713    0.0000 H   0  0  0  0  0  0  0  0  0  0  0  0
   -4.8000   -0.0001    0.0000 H   0  0  0  0  0  0  0  0  0  0  0  0
   -3.2000   -2.7713    0.0000 H   0  0  0  0  0  0  0  0  0  0  0  0
   -0.0001   -2.7713    0.0000 C   0  0  0  0  0  0  0  0  0  0  0  0
    1.6001   -2.7713    0.0000 C   0  0  0  0  0  0  0  0  0  0  0  0
    2.4001   -1.3857    0.0000 C   0  0  0  0  0  0  0  0  0  0  0  0
    4.0000   -1.3857    0.0000 H   0  0  0  0  0  0  0  0  0  0  0  0
    1.6001   -0.0001    0.0000 C   0  0  0  0  0  0  0  0  0  0  0  0
    2.4001    1.3857    0.0000 C   0  0  0  0  0  0  0  0  0  0  0  0
    4.0000    1.3857    0.0000 C   0  0  0  0  0  0  0  0  0  0  0  0
    4.8000    2.7713    0.0000 C   0  0  0  0  0  0  0  0  0  0  0  0
    4.0000    4.1569    0.0000 C   0  0  0  0  0  0  0  0  0  0  0  0
    2.4001    4.1569    0.0000 C   0  0  0  0  0  0  0  0  0  0  0  0
    1.6001    5.5426    0.0000 H   0  0  0  0  0  0  0  0  0  0  0  0
    1.6001    2.7713    0.0000 C   0  0  0  0  0  0  0  0  0  0  0  0
    4.8000    5.5426    0.0000 H   0  0  0  0  0  0  0  0  0  0  0  0
    6.4000    2.7713    0.0000 H   0  0  0  0  0  0  0  0  0  0  0  0
    4.8000   -0.0001    0.0000 H   0  0  0  0  0  0  0  0  0  0  0  0
    2.4001   -4.1569    0.0000 H   0  0  0  0  0  0  0  0  0  0  0  0
   -0.8001   -4.1569    0.0000 H   0  0  0  0  0  0  0  0  0  0  0  0
  1  2  4  0  0  0  0
  2  3  4  0  0  0  0
  3  4  4  0  0  0  0
  4  5  4  0  0  0  0
  5  6  4  0  0  0  0
  6  7  4  0  0  0  0
  7  2  4  0  0  0  0
  7  8  4  0  0  0  0
  8  9  4  0  0  0  0
  9 10  4  0  0  0  0
 10  1  4  0  0  0  0
 10 11  1  0  0  0  0
  9 12  1  0  0  0  0
  8 13  1  0  0  0  0
  6 14  1  0  0  0  0
  5 15  1  0  0  0  0
  4 16  4  0  0  0  0
 16 17  4  0  0  0  0
 17 18  4  0  0  0  0
 18 19  1  0  0  0  0
 18 20  4  0  0  0  0
 20  3  4  0  0  0  0
 20 21  4  0  0  0  0
 21 22  4  0  0  0  0
 22 23  4  0  0  0  0
 23 24  4  0  0  0  0
 24 25  4  0  0  0  0
 25 26  1  0  0  0  0
 25 27  4  0  0  0  0
 27  1  4  0  0  0  0
 27 21  4  0  0  0  0
 24 28  1  0  0  0  0
 23 29  1  0  0  0  0
 22 30  1  0  0  0  0
 17 31  1  0  0  0  0
 16 32  1  0  0  0  0
M  END
> <CAS>
192-97-2

> <NAME>
BENZO(E)PYRENE

> <preferred_name>
Benzo(e)pyrene

> <iupac>
benzo[e]pyrene

> <SMILES>
c1cc2cccc3c2c2c(cccc21)c1ccccc31

> <Canonical_QSARr>
c1cc2cccc3c2c2c(cccc21)c1ccccc31

> <InChI_Code_QSARr>
InChI=1S/C20H12/c1-2-8-16-15(7-1)17-9-3-5-13-11-12-14-6-4-10-18(16)20(14)19(13)17/h1-12H

> <InChI Key_QSARr>
TXVHTIQJNYSSKO-UHFFFAOYSA-N

> <Salt_Solvent>
?

> <WS Temperature>
25

> <WS Reference>
PEARLMAN,RS ET AL. (1984)

> <dsstox_substance_id>
DTXSID3023764

> <LogMolar>
-7.7233

$$$$
198-55-0
  -INDIGO-01081615412D

 32 36  0  0  0  0  0  0  0  0999 V2000
   -0.7999    1.3856    0.0000 C   0  0  0  0  0  0  0  0  0  0  0  0
    0.0001    2.7712    0.0000 C   0  0  0  0  0  0  0  0  0  0  0  0
   -0.7999    4.1569    0.0000 H   0  0  0  0  0  0  0  0  0  0  0  0
    1.6000    2.7712    0.0000 C   0  0  0  0  0  0  0  0  0  0  0  0
    2.4000    4.1569    0.0000 H   0  0  0  0  0  0  0  0  0  0  0  0
    2.4000    1.3856    0.0000 C   0  0  0  0  0  0  0  0  0  0  0  0
    4.0000    1.3856    0.0000 H   0  0  0  0  0  0  0  0  0  0  0  0
    1.6000    0.0001    0.0000 C   0  0  0  0  0  0  0  0  0  0  0  0
    2.4000   -1.3856    0.0000 C   0  0  0  0  0  0  0  0  0  0  0  0
    1.6000   -2.7712    0.0000 C   0  0  0  0  0  0  0  0  0  0  0  0
    0.0001   -2.7712    0.0000 C   0  0  0  0  0  0  0  0  0  0  0  0
   -0.7999   -1.3856    0.0000 C   0  0  0  0  0  0  0  0  0  0  0  0
   -2.4001   -1.3856    0.0000 C   0  0  0  0  0  0  0  0  0  0  0  0
   -3.2001    0.0001    0.0000 C   0  0  0  0  0  0  0  0  0  0  0  0
   -4.8000   -0.0001    0.0000 C   0  0  0  0  0  0  0  0  0  0  0  0
   -5.6000    1.3856    0.0000 C   0  0  0  0  0  0  0  0  0  0  0  0
   -4.8000    2.7712    0.0000 C   0  0  0  0  0  0  0  0  0  0  0  0
   -3.2001    2.7712    0.0000 C   0  0  0  0  0  0  0  0  0  0  0  0
   -2.4001    1.3856    0.0000 C   0  0  0  0  0  0  0  0  0  0  0  0
   -2.4001    4.1569    0.0000 H   0  0  0  0  0  0  0  0  0  0  0  0
   -5.6000    4.1569    0.0000 H   0  0  0  0  0  0  0  0  0  0  0  0
   -7.2000    1.3856    0.0000 H   0  0  0  0  0  0  0  0  0  0  0  0
   -5.6000   -1.3856    0.0000 C   0  0  0  0  0  0  0  0  0  0  0  0
   -7.2000   -1.3856    0.0000 H   0  0  0  0  0  0  0  0  0  0  0  0
   -4.8000   -2.7712    0.0000 C   0  0  0  0  0  0  0  0  0  0  0  0
   -5.6000   -4.1569    0.0000 H   0  0  0  0  0  0  0  0  0  0  0  0
   -3.2001   -2.7712    0.0000 C   0  0  0  0  0  0  0  0  0  0  0  0
   -2.4001   -4.1569    0.0000 H   0  0  0  0  0  0  0  0  0  0  0  0
    0.0001    0.0001    0.0000 C   0  0  0  0  0  0  0  0  0  0  0  0
   -0.7999   -4.1569    0.0000 H   0  0  0  0  0  0  0  0  0  0  0  0
    2.4000   -4.1569    0.0000 H   0  0  0  0  0  0  0  0  0  0  0  0
    4.0000   -1.3856    0.0000 H   0  0  0  0  0  0  0  0  0  0  0  0
  1  2  4  0  0  0  0
  2  3  1  0  0  0  0
  2  4  4  0  0  0  0
  4  5  1  0  0  0  0
  4  6  4  0  0  0  0
  6  7  1  0  0  0  0
  6  8  4  0  0  0  0
  8  9  4  0  0  0  0
  9 10  4  0  0  0  0
 10 11  4  0  0  0  0
 11 12  4  0  0  0  0
 12 13  4  0  0  0  0
 13 14  4  0  0  0  0
 14 15  4  0  0  0  0
 15 16  4  0  0  0  0
 16 17  4  0  0  0  0
 17 18  4  0  0  0  0
 18 19  4  0  0  0  0
 19  1  4  0  0  0  0
 19 14  4  0  0  0  0
 18 20  1  0  0  0  0
 17 21  1  0  0  0  0
 16 22  1  0  0  0  0
 15 23  4  0  0  0  0
 23 24  1  0  0  0  0
 23 25  4  0  0  0  0
 25 26  1  0  0  0  0
 25 27  4  0  0  0  0
 27 13  4  0  0  0  0
 27 28  1  0  0  0  0
 12 29  4  0  0  0  0
 29  1  4  0  0  0  0
 29  8  4  0  0  0  0
 11 30  1  0  0  0  0
 10 31  1  0  0  0  0
  9 32  1  0  0  0  0
M  END
> <CAS>
198-55-0

> <NAME>
PERYLENE

> <preferred_name>
Perylene

> <iupac>
perylene

> <SMILES>
c1ccc2c3c(cccc31)c1cccc3cccc2c31

> <Canonical_QSARr>
c1ccc2c3c(cccc31)c1cccc3cccc2c31

> <InChI_Code_QSARr>
InChI=1S/C20H12/c1-5-13-6-2-11-17-18-12-4-8-14-7-3-10-16(20(14)18)15(9-1)19(13)17/h1-12H

> <InChI Key_QSARr>
CSHWQDPOILHKBI-UHFFFAOYSA-N

> <Salt_Solvent>
?

> <WS Temperature>
25

> <WS Reference>
YALKOWSKY,SH & DANNENFELSER,RM (1992)

> <dsstox_substance_id>
DTXSID4047753

> <LogMolar>
-8.7999

$$$$
205-99-2
  -INDIGO-01081615412D

 32 36  0  0  0  0  0  0  0  0999 V2000
   -0.0001    0.0000    0.0000 C   0  0  0  0  0  0  0  0  0  0  0  0
   -1.3857    0.8000    0.0000 C   0  0  0  0  0  0  0  0  0  0  0  0
   -1.3857    2.4000    0.0000 C   0  0  0  0  0  0  0  0  0  0  0  0
   -0.0001    3.2000    0.0000 C   0  0  0  0  0  0  0  0  0  0  0  0
    1.3857    2.4000    0.0000 C   0  0  0  0  0  0  0  0  0  0  0  0
    2.7713    3.2000    0.0000 H   0  0  0  0  0  0  0  0  0  0  0  0
    1.3857    0.8000    0.0000 C   0  0  0  0  0  0  0  0  0  0  0  0
    2.3823   -0.4516    0.0000 C   0  0  0  0  0  0  0  0  0  0  0  0
    3.9822   -0.4516    0.0000 C   0  0  0  0  0  0  0  0  0  0  0  0
    4.7822    0.9339    0.0000 H   0  0  0  0  0  0  0  0  0  0  0  0
    4.7822   -1.8373    0.0000 C   0  0  0  0  0  0  0  0  0  0  0  0
    6.3823   -1.8373    0.0000 H   0  0  0  0  0  0  0  0  0  0  0  0
    3.9822   -3.2229    0.0000 C   0  0  0  0  0  0  0  0  0  0  0  0
    4.7822   -4.6086    0.0000 H   0  0  0  0  0  0  0  0  0  0  0  0
    2.3823   -3.2229    0.0000 C   0  0  0  0  0  0  0  0  0  0  0  0
    1.5823   -4.6086    0.0000 H   0  0  0  0  0  0  0  0  0  0  0  0
    1.5823   -1.8373    0.0000 C   0  0  0  0  0  0  0  0  0  0  0  0
   -0.0001   -1.6000    0.0000 C   0  0  0  0  0  0  0  0  0  0  0  0
   -1.3857   -2.4000    0.0000 C   0  0  0  0  0  0  0  0  0  0  0  0
   -2.7712   -1.6000    0.0000 C   0  0  0  0  0  0  0  0  0  0  0  0
   -4.1568   -2.4000    0.0000 C   0  0  0  0  0  0  0  0  0  0  0  0
   -4.1568   -4.0000    0.0000 H   0  0  0  0  0  0  0  0  0  0  0  0
   -5.5426   -1.6000    0.0000 C   0  0  0  0  0  0  0  0  0  0  0  0
   -6.9282   -2.4000    0.0000 H   0  0  0  0  0  0  0  0  0  0  0  0
   -5.5426    0.0000    0.0000 C   0  0  0  0  0  0  0  0  0  0  0  0
   -6.9282    0.8000    0.0000 H   0  0  0  0  0  0  0  0  0  0  0  0
   -4.1568    0.8000    0.0000 C   0  0  0  0  0  0  0  0  0  0  0  0
   -4.1568    2.4000    0.0000 H   0  0  0  0  0  0  0  0  0  0  0  0
   -2.7712    0.0000    0.0000 C   0  0  0  0  0  0  0  0  0  0  0  0
   -1.3857   -4.0000    0.0000 H   0  0  0  0  0  0  0  0  0  0  0  0
   -0.0001    4.8000    0.0000 H   0  0  0  0  0  0  0  0  0  0  0  0
   -2.7712    3.2000    0.0000 H   0  0  0  0  0  0  0  0  0  0  0  0
  1  2  4  0  0  0  0
  2  3  4  0  0  0  0
  3  4  4  0  0  0  0
  4  5  4  0  0  0  0
  5  6  1  0  0  0  0
  5  7  4  0  0  0  0
  7  1  4  0  0  0  0
  7  8  1  0  0  0  0
  8  9  4  0  0  0  0
  9 10  1  0  0  0  0
  9 11  4  0  0  0  0
 11 12  1  0  0  0  0
 11 13  4  0  0  0  0
 13 14  1  0  0  0  0
 13 15  4  0  0  0  0
 15 16  1  0  0  0  0
 15 17  4  0  0  0  0
 17  8  4  0  0  0  0
 17 18  1  0  0  0  0
 18  1  4  0  0  0  0
 18 19  4  0  0  0  0
 19 20  4  0  0  0  0
 20 21  4  0  0  0  0
 21 22  1  0  0  0  0
 21 23  4  0  0  0  0
 23 24  1  0  0  0  0
 23 25  4  0  0  0  0
 25 26  1  0  0  0  0
 25 27  4  0  0  0  0
 27 28  1  0  0  0  0
 27 29  4  0  0  0  0
 29 20  4  0  0  0  0
 29  2  4  0  0  0  0
 19 30  1  0  0  0  0
  4 31  1  0  0  0  0
  3 32  1  0  0  0  0
M  END
> <CAS>
205-99-2

> <NAME>
BENZO(B)FLUORANTHENE

> <preferred_name>
Benzo(b)fluoranthene

> <iupac>
benzo[e]acephenanthrylene

> <SMILES>
c1c2c3c(cccc3-c3ccccc3-2)c2ccccc21

> <Canonical_QSARr>
c1c2c3c(cccc3-c3ccccc3-2)c2ccccc21

> <InChI_Code_QSARr>
InChI=1S/C20H12/c1-2-7-14-13(6-1)12-19-16-9-4-3-8-15(16)18-11-5-10-17(14)20(18)19/h1-12H

> <InChI Key_QSARr>
FTOVXSOBNPWTSH-UHFFFAOYSA-N

> <Salt_Solvent>
?

> <WS Temperature>


> <WS Reference>
YALKOWSKY,SH & DANNENFELSER,RM (1992)

> <dsstox_substance_id>
DTXSID0023907

> <LogMolar>
-8.2259

$$$$
213-46-7
  -INDIGO-01081615412D

 36 40  0  0  0  0  0  0  0  0999 V2000
    0.0001    0.0000    0.0000 C   0  0  0  0  0  0  0  0  0  0  0  0
   -0.8000    1.3856    0.0000 C   0  0  0  0  0  0  0  0  0  0  0  0
    0.0001    2.7713    0.0000 H   0  0  0  0  0  0  0  0  0  0  0  0
   -2.4001    1.3856    0.0000 C   0  0  0  0  0  0  0  0  0  0  0  0
   -3.1999    2.7713    0.0000 H   0  0  0  0  0  0  0  0  0  0  0  0
   -3.1999    0.0000    0.0000 C   0  0  0  0  0  0  0  0  0  0  0  0
   -4.8001    0.0000    0.0000 C   0  0  0  0  0  0  0  0  0  0  0  0
   -5.5999   -1.3856    0.0000 C   0  0  0  0  0  0  0  0  0  0  0  0
   -4.8001   -2.7713    0.0000 C   0  0  0  0  0  0  0  0  0  0  0  0
   -3.1999   -2.7713    0.0000 C   0  0  0  0  0  0  0  0  0  0  0  0
   -2.4001   -4.1569    0.0000 H   0  0  0  0  0  0  0  0  0  0  0  0
   -2.4001   -1.3856    0.0000 C   0  0  0  0  0  0  0  0  0  0  0  0
   -0.8000   -1.3856    0.0000 C   0  0  0  0  0  0  0  0  0  0  0  0
    0.0001   -2.7713    0.0000 C   0  0  0  0  0  0  0  0  0  0  0  0
   -0.8000   -4.1569    0.0000 H   0  0  0  0  0  0  0  0  0  0  0  0
    1.5999   -2.7713    0.0000 C   0  0  0  0  0  0  0  0  0  0  0  0
    2.4000   -4.1569    0.0000 H   0  0  0  0  0  0  0  0  0  0  0  0
    2.4000   -1.3856    0.0000 C   0  0  0  0  0  0  0  0  0  0  0  0
    4.0001   -1.3856    0.0000 C   0  0  0  0  0  0  0  0  0  0  0  0
    4.7999   -2.7713    0.0000 C   0  0  0  0  0  0  0  0  0  0  0  0
    4.0001   -4.1569    0.0000 H   0  0  0  0  0  0  0  0  0  0  0  0
    6.4001   -2.7713    0.0000 C   0  0  0  0  0  0  0  0  0  0  0  0
    7.2001   -4.1569    0.0000 H   0  0  0  0  0  0  0  0  0  0  0  0
    7.2001   -1.3856    0.0000 C   0  0  0  0  0  0  0  0  0  0  0  0
    8.8000   -1.3856    0.0000 H   0  0  0  0  0  0  0  0  0  0  0  0
    6.4001    0.0000    0.0000 C   0  0  0  0  0  0  0  0  0  0  0  0
    7.2001    1.3856    0.0000 H   0  0  0  0  0  0  0  0  0  0  0  0
    4.7999    0.0000    0.0000 C   0  0  0  0  0  0  0  0  0  0  0  0
    4.0001    1.3856    0.0000 C   0  0  0  0  0  0  0  0  0  0  0  0
    2.4000    1.3856    0.0000 C   0  0  0  0  0  0  0  0  0  0  0  0
    1.5999    2.7713    0.0000 H   0  0  0  0  0  0  0  0  0  0  0  0
    1.5999    0.0000    0.0000 C   0  0  0  0  0  0  0  0  0  0  0  0
    4.7999    2.7713    0.0000 H   0  0  0  0  0  0  0  0  0  0  0  0
   -5.6001   -4.1569    0.0000 H   0  0  0  0  0  0  0  0  0  0  0  0
   -7.2000   -1.3856    0.0000 H   0  0  0  0  0  0  0  0  0  0  0  0
   -5.6001    1.3856    0.0000 H   0  0  0  0  0  0  0  0  0  0  0  0
  1  2  4  0  0  0  0
  2  3  1  0  0  0  0
  2  4  4  0  0  0  0
  4  5  1  0  0  0  0
  4  6  4  0  0  0  0
  6  7  4  0  0  0  0
  7  8  4  0  0  0  0
  8  9  4  0  0  0  0
  9 10  4  0  0  0  0
 10 11  1  0  0  0  0
 10 12  4  0  0  0  0
 12  6  4  0  0  0  0
 12 13  4  0  0  0  0
 13  1  4  0  0  0  0
 13 14  4  0  0  0  0
 14 15  1  0  0  0  0
 14 16  4  0  0  0  0
 16 17  1  0  0  0  0
 16 18  4  0  0  0  0
 18 19  4  0  0  0  0
 19 20  4  0  0  0  0
 20 21  1  0  0  0  0
 20 22  4  0  0  0  0
 22 23  1  0  0  0  0
 22 24  4  0  0  0  0
 24 25  1  0  0  0  0
 24 26  4  0  0  0  0
 26 27  1  0  0  0  0
 26 28  4  0  0  0  0
 28 19  4  0  0  0  0
 28 29  4  0  0  0  0
 29 30  4  0  0  0  0
 30 31  1  0  0  0  0
 30 32  4  0  0  0  0
 32  1  4  0  0  0  0
 32 18  4  0  0  0  0
 29 33  1  0  0  0  0
  9 34  1  0  0  0  0
  8 35  1  0  0  0  0
  7 36  1  0  0  0  0
M  END
> <CAS>
213-46-7

> <NAME>
PICENE

> <preferred_name>
Picene

> <iupac>
PICENE

> <SMILES>
c1cc2c(ccc3c4ccccc4ccc23)c2ccccc21

> <Canonical_QSARr>
c1cc2c(ccc3c4ccccc4ccc23)c2ccccc21

> <InChI_Code_QSARr>
InChI=1S/C22H14/c1-3-7-17-15(5-1)9-11-21-19(17)13-14-20-18-8-4-2-6-16(18)10-12-22(20)21/h1-14H

> <InChI Key_QSARr>
GBROPGWFBFCKAG-UHFFFAOYSA-N

> <Salt_Solvent>
?

> <WS Temperature>
20

> <WS Reference>
YALKOWSKY,SH & DANNENFELSER,RM (1992)

> <dsstox_substance_id>
DTXSID8073895

> <LogMolar>
-7.8097

$$$$
224-41-9
  -INDIGO-01081615412D

 36 40  0  0  0  0  0  0  0  0999 V2000
    0.0000    0.0000    0.0000 C   0  0  0  0  0  0  0  0  0  0  0  0
   -1.3855    0.8000    0.0000 C   0  0  0  0  0  0  0  0  0  0  0  0
   -1.3857    2.4000    0.0000 H   0  0  0  0  0  0  0  0  0  0  0  0
   -2.7713    0.0000    0.0000 C   0  0  0  0  0  0  0  0  0  0  0  0
   -2.7713   -1.6000    0.0000 C   0  0  0  0  0  0  0  0  0  0  0  0
   -4.1568   -2.4001    0.0000 C   0  0  0  0  0  0  0  0  0  0  0  0
   -5.5426   -1.6000    0.0000 C   0  0  0  0  0  0  0  0  0  0  0  0
   -5.5426    0.0000    0.0000 C   0  0  0  0  0  0  0  0  0  0  0  0
   -6.9281    0.8000    0.0000 C   0  0  0  0  0  0  0  0  0  0  0  0
   -8.3138    0.0000    0.0000 H   0  0  0  0  0  0  0  0  0  0  0  0
   -6.9281    2.4000    0.0000 C   0  0  0  0  0  0  0  0  0  0  0  0
   -8.3138    3.2001    0.0000 H   0  0  0  0  0  0  0  0  0  0  0  0
   -5.5426    3.2001    0.0000 C   0  0  0  0  0  0  0  0  0  0  0  0
   -5.5426    4.8000    0.0000 H   0  0  0  0  0  0  0  0  0  0  0  0
   -4.1570    2.4000    0.0000 C   0  0  0  0  0  0  0  0  0  0  0  0
   -2.7713    3.2001    0.0000 H   0  0  0  0  0  0  0  0  0  0  0  0
   -4.1570    0.8000    0.0000 C   0  0  0  0  0  0  0  0  0  0  0  0
   -6.9281   -2.4001    0.0000 H   0  0  0  0  0  0  0  0  0  0  0  0
   -4.1570   -4.0000    0.0000 H   0  0  0  0  0  0  0  0  0  0  0  0
   -1.3855   -2.4001    0.0000 C   0  0  0  0  0  0  0  0  0  0  0  0
   -1.3855   -4.0000    0.0000 H   0  0  0  0  0  0  0  0  0  0  0  0
    0.0000   -1.6000    0.0000 C   0  0  0  0  0  0  0  0  0  0  0  0
    1.3857   -2.4001    0.0000 C   0  0  0  0  0  0  0  0  0  0  0  0
    1.3857   -4.0000    0.0000 H   0  0  0  0  0  0  0  0  0  0  0  0
    2.7713   -1.6000    0.0000 C   0  0  0  0  0  0  0  0  0  0  0  0
    4.1570   -2.4001    0.0000 H   0  0  0  0  0  0  0  0  0  0  0  0
    2.7713    0.0000    0.0000 C   0  0  0  0  0  0  0  0  0  0  0  0
    4.1570    0.8000    0.0000 C   0  0  0  0  0  0  0  0  0  0  0  0
    4.1570    2.4000    0.0000 C   0  0  0  0  0  0  0  0  0  0  0  0
    2.7713    3.2001    0.0000 C   0  0  0  0  0  0  0  0  0  0  0  0
    1.3857    2.4000    0.0000 C   0  0  0  0  0  0  0  0  0  0  0  0
    0.0000    3.2001    0.0000 H   0  0  0  0  0  0  0  0  0  0  0  0
    1.3857    0.8000    0.0000 C   0  0  0  0  0  0  0  0  0  0  0  0
    2.7713    4.8000    0.0000 H   0  0  0  0  0  0  0  0  0  0  0  0
    5.5426    3.2001    0.0000 H   0  0  0  0  0  0  0  0  0  0  0  0
    5.5426    0.0000    0.0000 H   0  0  0  0  0  0  0  0  0  0  0  0
  1  2  4  0  0  0  0
  2  3  1  0  0  0  0
  2  4  4  0  0  0  0
  4  5  4  0  0  0  0
  5  6  4  0  0  0  0
  6  7  4  0  0  0  0
  7  8  4  0  0  0  0
  8  9  4  0  0  0  0
  9 10  1  0  0  0  0
  9 11  4  0  0  0  0
 11 12  1  0  0  0  0
 11 13  4  0  0  0  0
 13 14  1  0  0  0  0
 13 15  4  0  0  0  0
 15 16  1  0  0  0  0
 15 17  4  0  0  0  0
 17  8  4  0  0  0  0
 17  4  4  0  0  0  0
  7 18  1  0  0  0  0
  6 19  1  0  0  0  0
  5 20  4  0  0  0  0
 20 21  1  0  0  0  0
 20 22  4  0  0  0  0
 22  1  4  0  0  0  0
 22 23  4  0  0  0  0
 23 24  1  0  0  0  0
 23 25  4  0  0  0  0
 25 26  1  0  0  0  0
 25 27  4  0  0  0  0
 27 28  4  0  0  0  0
 28 29  4  0  0  0  0
 29 30  4  0  0  0  0
 30 31  4  0  0  0  0
 31 32  1  0  0  0  0
 31 33  4  0  0  0  0
 33  1  4  0  0  0  0
 33 27  4  0  0  0  0
 30 34  1  0  0  0  0
 29 35  1  0  0  0  0
 28 36  1  0  0  0  0
M  END
> <CAS>
224-41-9

> <NAME>
DIBENZ(A,J)ANTHRACENE

> <preferred_name>
Dibenz[a,j]anthracene

> <iupac>


> <SMILES>
c1c2ccc3ccccc3c2cc2c3ccccc3ccc21

> <Canonical_QSARr>
c1c2ccc3ccccc3c2cc2c3ccccc3ccc21

> <InChI_Code_QSARr>
InChI=1S/C22H14/c1-3-7-19-15(5-1)9-11-17-13-18-12-10-16-6-2-4-8-20(16)22(18)14-21(17)19/h1-14H

> <InChI Key_QSARr>
KLIHYVJAYWCEDM-UHFFFAOYSA-N

> <Salt_Solvent>
?

> <WS Temperature>
25

> <WS Reference>
SHAW,DG (1989)

> <dsstox_substance_id>
DTXSID8074811

> <LogMolar>
-8.4318

$$$$
226-06-2
  -INDIGO-01081615412D

 29 32  0  0  0  0  0  0  0  0999 V2000
    2.4000    1.3856    0.0000 S   0  0  0  0  0  0  0  0  0  0  0  0
    4.0000    1.3856    0.0000 C   0  0  0  0  0  0  0  0  0  0  0  0
    4.8000    2.7712    0.0000 C   0  0  0  0  0  0  0  0  0  0  0  0
    6.4000    2.7712    0.0000 C   0  0  0  0  0  0  0  0  0  0  0  0
    7.2000    1.3856    0.0000 C   0  0  0  0  0  0  0  0  0  0  0  0
    6.4000    0.0001    0.0000 C   0  0  0  0  0  0  0  0  0  0  0  0
    7.2000   -1.3856    0.0000 H   0  0  0  0  0  0  0  0  0  0  0  0
    4.8000    0.0001    0.0000 C   0  0  0  0  0  0  0  0  0  0  0  0
    4.0000   -1.3856    0.0000 N   0  0  0  0  0  0  0  0  0  0  0  0
    4.8000   -2.7712    0.0000 H   0  0  0  0  0  0  0  0  0  0  0  0
    2.4000   -1.3856    0.0000 C   0  0  0  0  0  0  0  0  0  0  0  0
    1.6000   -2.7712    0.0000 C   0  0  0  0  0  0  0  0  0  0  0  0
    0.0000   -2.7712    0.0000 C   0  0  0  0  0  0  0  0  0  0  0  0
   -0.8000   -1.3856    0.0000 C   0  0  0  0  0  0  0  0  0  0  0  0
   -2.4000   -1.3856    0.0000 C   0  0  0  0  0  0  0  0  0  0  0  0
   -3.2000   -2.7712    0.0000 H   0  0  0  0  0  0  0  0  0  0  0  0
   -3.2000    0.0001    0.0000 C   0  0  0  0  0  0  0  0  0  0  0  0
   -4.8000    0.0001    0.0000 H   0  0  0  0  0  0  0  0  0  0  0  0
   -2.4000    1.3856    0.0000 C   0  0  0  0  0  0  0  0  0  0  0  0
   -3.2000    2.7712    0.0000 H   0  0  0  0  0  0  0  0  0  0  0  0
   -0.8000    1.3856    0.0000 C   0  0  0  0  0  0  0  0  0  0  0  0
    0.0000    2.7713    0.0000 H   0  0  0  0  0  0  0  0  0  0  0  0
    0.0000    0.0001    0.0000 C   0  0  0  0  0  0  0  0  0  0  0  0
    1.6000    0.0001    0.0000 C   0  0  0  0  0  0  0  0  0  0  0  0
   -0.8000   -4.1569    0.0000 H   0  0  0  0  0  0  0  0  0  0  0  0
    2.4000   -4.1569    0.0000 H   0  0  0  0  0  0  0  0  0  0  0  0
    8.8000    1.3856    0.0000 H   0  0  0  0  0  0  0  0  0  0  0  0
    7.2000    4.1569    0.0000 H   0  0  0  0  0  0  0  0  0  0  0  0
    4.0000    4.1569    0.0000 H   0  0  0  0  0  0  0  0  0  0  0  0
  1  2  1  0  0  0  0
  2  3  4  0  0  0  0
  3  4  4  0  0  0  0
  4  5  4  0  0  0  0
  5  6  4  0  0  0  0
  6  7  1  0  0  0  0
  6  8  4  0  0  0  0
  8  2  4  0  0  0  0
  8  9  1  0  0  0  0
  9 10  1  0  0  0  0
  9 11  1  0  0  0  0
 11 12  4  0  0  0  0
 12 13  4  0  0  0  0
 13 14  4  0  0  0  0
 14 15  4  0  0  0  0
 15 16  1  0  0  0  0
 15 17  4  0  0  0  0
 17 18  1  0  0  0  0
 17 19  4  0  0  0  0
 19 20  1  0  0  0  0
 19 21  4  0  0  0  0
 21 22  1  0  0  0  0
 21 23  4  0  0  0  0
 23 14  4  0  0  0  0
 23 24  4  0  0  0  0
 24  1  1  0  0  0  0
 24 11  4  0  0  0  0
 13 25  1  0  0  0  0
 12 26  1  0  0  0  0
  5 27  1  0  0  0  0
  4 28  1  0  0  0  0
  3 29  1  0  0  0  0
M  END
> <CAS>
226-06-2

> <NAME>
7H-Benzo[c]phenothiazine

> <preferred_name>
7H-Benzo[c]phenothiazine

> <iupac>
C16H11NS

> <SMILES>
c1cccc2c3Sc4ccccc4Nc3ccc21

> <Canonical_QSARr>
c1cccc2c3Sc4ccccc4Nc3ccc21

> <InChI_Code_QSARr>
InChI=1S/C16H11NS/c1-2-6-12-11(5-1)9-10-14-16(12)18-15-8-4-3-7-13(15)17-14/h1-10,17H

> <InChI Key_QSARr>
WUTNPRKQMZJXTR-UHFFFAOYSA-N

> <Salt_Solvent>
?

> <WS Temperature>
20

> <WS Reference>
BEILSTEIN

> <dsstox_substance_id>
DTXSID40277370

> <LogMolar>
-6.5727

$$$$
239-64-5
  -INDIGO-01081615412D

 34 38  0  0  0  0  0  0  0  0999 V2000
   -0.0000   -0.0000    0.0000 C   0  0  0  0  0  0  0  0  0  0  0  0
   -1.4616    0.6507    0.0000 C   0  0  0  0  0  0  0  0  0  0  0  0
   -1.6289    2.2420    0.0000 C   0  0  0  0  0  0  0  0  0  0  0  0
   -3.0907    2.8927    0.0000 C   0  0  0  0  0  0  0  0  0  0  0  0
   -4.3849    1.9523    0.0000 C   0  0  0  0  0  0  0  0  0  0  0  0
   -4.2178    0.3611    0.0000 C   0  0  0  0  0  0  0  0  0  0  0  0
   -5.5123   -0.5793    0.0000 H   0  0  0  0  0  0  0  0  0  0  0  0
   -2.7560   -0.2897    0.0000 C   0  0  0  0  0  0  0  0  0  0  0  0
   -2.5889   -1.8810    0.0000 C   0  0  0  0  0  0  0  0  0  0  0  0
   -3.8834   -2.8214    0.0000 H   0  0  0  0  0  0  0  0  0  0  0  0
   -1.1272   -2.5317    0.0000 C   0  0  0  0  0  0  0  0  0  0  0  0
   -0.9598   -4.1229    0.0000 H   0  0  0  0  0  0  0  0  0  0  0  0
    0.1673   -1.5912    0.0000 C   0  0  0  0  0  0  0  0  0  0  0  0
    1.7323   -1.9238    0.0000 C   0  0  0  0  0  0  0  0  0  0  0  0
    2.5322   -0.5383    0.0000 C   0  0  0  0  0  0  0  0  0  0  0  0
    4.1322   -0.5383    0.0000 C   0  0  0  0  0  0  0  0  0  0  0  0
    4.9324    0.8474    0.0000 C   0  0  0  0  0  0  0  0  0  0  0  0
    4.1322    2.2330    0.0000 H   0  0  0  0  0  0  0  0  0  0  0  0
    6.5324    0.8474    0.0000 C   0  0  0  0  0  0  0  0  0  0  0  0
    7.3323    2.2330    0.0000 H   0  0  0  0  0  0  0  0  0  0  0  0
    7.3323   -0.5383    0.0000 C   0  0  0  0  0  0  0  0  0  0  0  0
    8.9323   -0.5383    0.0000 H   0  0  0  0  0  0  0  0  0  0  0  0
    6.5324   -1.9238    0.0000 C   0  0  0  0  0  0  0  0  0  0  0  0
    7.3323   -3.3095    0.0000 H   0  0  0  0  0  0  0  0  0  0  0  0
    4.9324   -1.9238    0.0000 C   0  0  0  0  0  0  0  0  0  0  0  0
    4.1322   -3.3095    0.0000 C   0  0  0  0  0  0  0  0  0  0  0  0
    2.5322   -3.3095    0.0000 C   0  0  0  0  0  0  0  0  0  0  0  0
    1.7323   -4.6952    0.0000 H   0  0  0  0  0  0  0  0  0  0  0  0
    4.9324   -4.6952    0.0000 H   0  0  0  0  0  0  0  0  0  0  0  0
    1.4617    0.6507    0.0000 N   0  0  0  1  0  0  0  0  0  0  0  0
    1.7944    2.2158    0.0000 H   0  0  0  0  0  0  0  0  0  0  0  0
   -5.8467    2.6031    0.0000 H   0  0  0  0  0  0  0  0  0  0  0  0
   -3.2578    4.4840    0.0000 H   0  0  0  0  0  0  0  0  0  0  0  0
   -0.3345    3.1825    0.0000 H   0  0  0  0  0  0  0  0  0  0  0  0
  1  2  4  0  0  0  0
  2  3  4  0  0  0  0
  3  4  4  0  0  0  0
  4  5  4  0  0  0  0
  5  6  4  0  0  0  0
  6  7  1  0  0  0  0
  6  8  4  0  0  0  0
  8  2  4  0  0  0  0
  8  9  4  0  0  0  0
  9 10  1  0  0  0  0
  9 11  4  0  0  0  0
 11 12  1  0  0  0  0
 11 13  4  0  0  0  0
 13  1  4  0  0  0  0
 13 14  4  0  0  0  0
 14 15  4  0  0  0  0
 15 16  4  0  0  0  0
 16 17  4  0  0  0  0
 17 18  1  0  0  0  0
 17 19  4  0  0  0  0
 19 20  1  0  0  0  0
 19 21  4  0  0  0  0
 21 22  1  0  0  0  0
 21 23  4  0  0  0  0
 23 24  1  0  0  0  0
 23 25  4  0  0  0  0
 25 16  4  0  0  0  0
 25 26  4  0  0  0  0
 26 27  4  0  0  0  0
 27 14  4  0  0  0  0
 27 28  1  0  0  0  0
 26 29  1  0  0  0  0
 15 30  4  0  0  0  0
 30  1  4  0  0  0  0
 30 31  1  0  0  0  0
  5 32  1  0  0  0  0
  4 33  1  0  0  0  0
  3 34  1  0  0  0  0
M  END
> <CAS>
239-64-5

> <NAME>
13H-DIBENZO(A,I)CARBAZOLE

> <preferred_name>
1,2;7,8-Dibenzocarbazole

> <iupac>


> <SMILES>
c1cc2c([nH]c3c4ccccc4ccc23)c2ccccc21

> <Canonical_QSARr>
c1cc2c([nH]c3c4ccccc4ccc23)c2ccccc21

> <InChI_Code_QSARr>
InChI=1S/C20H13N/c1-3-7-15-13(5-1)9-11-17-18-12-10-14-6-2-4-8-16(14)20(18)21-19(15)17/h1-12,21H

> <InChI Key_QSARr>
IUILSTHMSGDSHQ-UHFFFAOYSA-N

> <Salt_Solvent>
?

> <WS Temperature>
25

> <WS Reference>
BANWART,WL ET AL. (1982)

> <dsstox_substance_id>
DTXSID9075373

> <LogMolar>
-7.4229

$$$$
262-12-4
  -INDIGO-01081615412D

 22 24  0  0  0  0  0  0  0  0999 V2000
   -1.3856    0.8000    0.0000 O   0  0  0  0  0  0  0  0  0  0  0  0
   -2.7712   -0.0000    0.0000 C   0  0  0  0  0  0  0  0  0  0  0  0
   -4.1569    0.8000    0.0000 C   0  0  0  0  0  0  0  0  0  0  0  0
   -5.5425   -0.0000    0.0000 C   0  0  0  0  0  0  0  0  0  0  0  0
   -5.5425   -1.6000    0.0000 C   0  0  0  0  0  0  0  0  0  0  0  0
   -4.1569   -2.4000    0.0000 C   0  0  0  0  0  0  0  0  0  0  0  0
   -4.1569   -4.0000    0.0000 H   0  0  0  0  0  0  0  0  0  0  0  0
   -2.7712   -1.6000    0.0000 C   0  0  0  0  0  0  0  0  0  0  0  0
   -1.3856   -2.4000    0.0000 O   0  0  0  0  0  0  0  0  0  0  0  0
   -0.0001   -1.6000    0.0000 C   0  0  0  0  0  0  0  0  0  0  0  0
    1.3856   -2.4000    0.0000 C   0  0  0  0  0  0  0  0  0  0  0  0
    2.7713   -1.6000    0.0000 C   0  0  0  0  0  0  0  0  0  0  0  0
    2.7713   -0.0000    0.0000 C   0  0  0  0  0  0  0  0  0  0  0  0
    1.3856    0.8000    0.0000 C   0  0  0  0  0  0  0  0  0  0  0  0
    1.3856    2.4000    0.0000 H   0  0  0  0  0  0  0  0  0  0  0  0
   -0.0001   -0.0000    0.0000 C   0  0  0  0  0  0  0  0  0  0  0  0
    4.1569    0.8000    0.0000 H   0  0  0  0  0  0  0  0  0  0  0  0
    4.1569   -2.4000    0.0000 H   0  0  0  0  0  0  0  0  0  0  0  0
    1.3856   -4.0000    0.0000 H   0  0  0  0  0  0  0  0  0  0  0  0
   -6.9282   -2.4000    0.0000 H   0  0  0  0  0  0  0  0  0  0  0  0
   -6.9282    0.8000    0.0000 H   0  0  0  0  0  0  0  0  0  0  0  0
   -4.1569    2.4000    0.0000 H   0  0  0  0  0  0  0  0  0  0  0  0
  1  2  1  0  0  0  0
  2  3  4  0  0  0  0
  3  4  4  0  0  0  0
  4  5  4  0  0  0  0
  5  6  4  0  0  0  0
  6  7  1  0  0  0  0
  6  8  4  0  0  0  0
  8  2  4  0  0  0  0
  8  9  1  0  0  0  0
  9 10  1  0  0  0  0
 10 11  4  0  0  0  0
 11 12  4  0  0  0  0
 12 13  4  0  0  0  0
 13 14  4  0  0  0  0
 14 15  1  0  0  0  0
 14 16  4  0  0  0  0
 16  1  1  0  0  0  0
 16 10  4  0  0  0  0
 13 17  1  0  0  0  0
 12 18  1  0  0  0  0
 11 19  1  0  0  0  0
  5 20  1  0  0  0  0
  4 21  1  0  0  0  0
  3 22  1  0  0  0  0
M  END
> <CAS>
262-12-4

> <NAME>
DIBENZO-P-DIOXIN

> <preferred_name>
Dibenzo-p-dioxin

> <iupac>
oxanthrene

> <SMILES>
c1cccc2Oc3ccccc3Oc21

> <Canonical_QSARr>
c1cccc2Oc3ccccc3Oc21

> <InChI_Code_QSARr>
InChI=1S/C12H8O2/c1-2-6-10-9(5-1)13-11-7-3-4-8-12(11)14-10/h1-8H

> <InChI Key_QSARr>
NFBOHOGPQUYFRF-UHFFFAOYSA-N

> <Salt_Solvent>
?

> <WS Temperature>
25

> <WS Reference>
YALKOWSKY,SH & DANNENFELSER,RM (1992)

> <dsstox_substance_id>
DTXSID8020410

> <LogMolar>
-5.3106

$$$$
280-57-9
  -INDIGO-01081615412D

 20 21  0  0  0  0  0  0  0  0999 V2000
   -0.0000   -0.0000    0.0000 N   0  0  0  0  0  0  0  0  0  0  0  0
   -0.5343    1.0744    0.0000 C   0  0  0  0  0  0  0  0  0  0  0  0
    0.9452    0.4655    0.0000 H   0  0  0  0  0  0  0  0  0  0  0  0
   -0.2240    2.6441    0.0000 H   0  0  0  0  0  0  0  0  0  0  0  0
   -1.5736    1.6745    0.0000 C   0  0  0  0  0  0  0  0  0  0  0  0
   -1.9303    2.5026    0.0000 H   0  0  0  0  0  0  0  0  0  0  0  0
   -2.8408    2.6513    0.0000 H   0  0  0  0  0  0  0  0  0  0  0  0
   -2.7713    1.6000    0.0000 N   0  0  0  0  0  0  0  0  0  0  0  0
   -1.3856    2.4000    0.0000 C   0  0  0  0  0  0  0  0  0  0  0  0
   -0.0000    1.6000    0.0000 C   0  0  0  0  0  0  0  0  0  0  0  0
    1.6000    1.6000    0.0000 H   0  0  0  0  0  0  0  0  0  0  0  0
    0.8000    2.9856    0.0000 H   0  0  0  0  0  0  0  0  0  0  0  0
   -0.3572    3.6257    0.0000 H   0  0  0  0  0  0  0  0  0  0  0  0
   -1.6067    3.2741    0.0000 H   0  0  0  0  0  0  0  0  0  0  0  0
   -2.7713   -0.0000    0.0000 C   0  0  0  0  0  0  0  0  0  0  0  0
   -4.3470    0.2778    0.0000 H   0  0  0  0  0  0  0  0  0  0  0  0
   -3.3185   -1.5035    0.0000 H   0  0  0  0  0  0  0  0  0  0  0  0
   -1.3856   -0.8000    0.0000 C   0  0  0  0  0  0  0  0  0  0  0  0
   -2.4141   -2.0257    0.0000 H   0  0  0  0  0  0  0  0  0  0  0  0
   -0.3572   -2.0257    0.0000 H   0  0  0  0  0  0  0  0  0  0  0  0
  1  2  1  0  0  0  0
  2  3  1  0  0  0  0
  2  4  1  0  0  0  0
  2  5  1  0  0  0  0
  5  6  1  0  0  0  0
  5  7  1  0  0  0  0
  5  8  1  0  0  0  0
  8  9  1  0  0  0  0
  9 10  1  0  0  0  0
 10  1  1  0  0  0  0
 10 11  1  0  0  0  0
 10 12  1  0  0  0  0
  9 13  1  0  0  0  0
  9 14  1  0  0  0  0
  8 15  1  0  0  0  0
 15 16  1  0  0  0  0
 15 17  1  0  0  0  0
 15 18  1  0  0  0  0
 18  1  1  0  0  0  0
 18 19  1  0  0  0  0
 18 20  1  0  0  0  0
M  END
> <CAS>
280-57-9

> <NAME>
1,4-DIAZABICYCLO(2,2,2)OCTANE  (DABCO)

> <preferred_name>
1,4-Diazabicyclo[2.2.2]octane

> <iupac>
1,4-diazabicyclo[2.2.2]octane

> <SMILES>
C1CN2CCN1CC2

> <Canonical_QSARr>
C1CN2CCN1CC2

> <InChI_Code_QSARr>
InChI=1S/C6H12N2/c1-2-8-5-3-7(1)4-6-8/h1-6H2

> <InChI Key_QSARr>
IMNIMPAHZVJRPE-UHFFFAOYSA-N

> <Salt_Solvent>
?

> <WS Temperature>
25

> <WS Reference>
MERCK INDEX (2001)

> <dsstox_substance_id>
DTXSID0022016

> <LogMolar>
0.6033

$$$$
292-64-8
  -INDIGO-01081615412D

 24 24  0  0  0  0  0  0  0  0999 V2000
    0.0000   -0.0000    0.0000 C   0  0  0  0  0  0  0  0  0  0  0  0
   -1.5455    0.4141    0.0000 C   0  0  0  0  0  0  0  0  0  0  0  0
   -0.7454    1.7998    0.0000 H   0  0  0  0  0  0  0  0  0  0  0  0
   -2.4632    1.7247    0.0000 H   0  0  0  0  0  0  0  0  0  0  0  0
   -2.9312   -0.3859    0.0000 C   0  0  0  0  0  0  0  0  0  0  0  0
   -3.3453    1.1596    0.0000 H   0  0  0  0  0  0  0  0  0  0  0  0
   -4.5068   -0.1081    0.0000 H   0  0  0  0  0  0  0  0  0  0  0  0
   -3.3453   -1.9314    0.0000 C   0  0  0  0  0  0  0  0  0  0  0  0
   -4.8487   -1.3842    0.0000 H   0  0  0  0  0  0  0  0  0  0  0  0
   -4.6559   -2.8490    0.0000 H   0  0  0  0  0  0  0  0  0  0  0  0
   -2.5453   -3.3170    0.0000 C   0  0  0  0  0  0  0  0  0  0  0  0
   -4.0907   -3.7311    0.0000 H   0  0  0  0  0  0  0  0  0  0  0  0
   -2.8231   -4.8927    0.0000 H   0  0  0  0  0  0  0  0  0  0  0  0
   -0.9997   -3.7311    0.0000 C   0  0  0  0  0  0  0  0  0  0  0  0
   -1.7997   -5.1168    0.0000 H   0  0  0  0  0  0  0  0  0  0  0  0
   -0.0820   -5.0417    0.0000 H   0  0  0  0  0  0  0  0  0  0  0  0
    0.3859   -2.9312    0.0000 C   0  0  0  0  0  0  0  0  0  0  0  0
    0.8000   -4.4766    0.0000 H   0  0  0  0  0  0  0  0  0  0  0  0
    1.9616   -3.2089    0.0000 H   0  0  0  0  0  0  0  0  0  0  0  0
    0.8000   -1.3856    0.0000 C   0  0  0  0  0  0  0  0  0  0  0  0
    2.1856   -2.1856    0.0000 H   0  0  0  0  0  0  0  0  0  0  0  0
    2.1106   -0.4679    0.0000 H   0  0  0  0  0  0  0  0  0  0  0  0
    1.5455    0.4141    0.0000 H   0  0  0  0  0  0  0  0  0  0  0  0
    0.2778    1.5757    0.0000 H   0  0  0  0  0  0  0  0  0  0  0  0
  1  2  1  0  0  0  0
  2  3  1  0  0  0  0
  2  4  1  0  0  0  0
  2  5  1  0  0  0  0
  5  6  1  0  0  0  0
  5  7  1  0  0  0  0
  5  8  1  0  0  0  0
  8  9  1  0  0  0  0
  8 10  1  0  0  0  0
  8 11  1  0  0  0  0
 11 12  1  0  0  0  0
 11 13  1  0  0  0  0
 11 14  1  0  0  0  0
 14 15  1  0  0  0  0
 14 16  1  0  0  0  0
 14 17  1  0  0  0  0
 17 18  1  0  0  0  0
 17 19  1  0  0  0  0
 17 20  1  0  0  0  0
 20  1  1  0  0  0  0
 20 21  1  0  0  0  0
 20 22  1  0  0  0  0
  1 23  1  0  0  0  0
  1 24  1  0  0  0  0
M  END
> <CAS>
292-64-8

> <NAME>
CYCLOOCTANE

> <preferred_name>
Cyclooctane

> <iupac>


> <SMILES>
C1CCCCCCC1

> <Canonical_QSARr>
C1CCCCCCC1

> <InChI_Code_QSARr>
InChI=1S/C8H16/c1-2-4-6-8-7-5-3-1/h1-8H2

> <InChI Key_QSARr>
WJTCGQSWYFHTAC-UHFFFAOYSA-N

> <Salt_Solvent>
?

> <WS Temperature>
25

> <WS Reference>
MCAULIFFE,C (1966)

> <dsstox_substance_id>
DTXSID9075377

> <LogMolar>
-4.1524

$$$$
298-01-1
  -INDIGO-01081615412D

 27 26  0  0  0  0  0  0  0  0999 V2000
   -7.2000    1.3856    0.0000 C   0  0  0  0  0  0  0  0  0  0  0  0
   -5.6000    1.3856    0.0000 O   0  0  0  0  0  0  0  0  0  0  0  0
   -4.7999    0.0000    0.0000 C   0  0  0  0  0  0  0  0  0  0  0  0
   -5.6000   -1.3856    0.0000 O   0  0  0  0  0  0  0  0  0  0  0  0
   -3.1999    0.0000    0.0000 C   0  0  0  0  0  0  0  0  0  0  0  0
   -2.3999   -1.3856    0.0000 C   0  0  0  0  0  0  0  0  0  0  0  0
   -3.1999   -2.7713    0.0000 C   0  0  0  0  0  0  0  0  0  0  0  0
   -3.9999   -4.1569    0.0000 H   0  0  0  0  0  0  0  0  0  0  0  0
   -4.7999   -2.7713    0.0000 H   0  0  0  0  0  0  0  0  0  0  0  0
   -2.3999   -4.1569    0.0000 H   0  0  0  0  0  0  0  0  0  0  0  0
   -0.8001   -1.3856    0.0000 O   0  0  0  0  0  0  0  0  0  0  0  0
   -0.0001    0.0000    0.0000 P   0  0  0  0  0  0  0  0  0  0  0  0
    0.8000    1.3856    0.0000 O   0  0  0  0  0  0  0  0  0  0  0  0
    2.4000    1.3856    0.0000 C   0  0  0  0  0  0  0  0  0  0  0  0
    4.0000    1.3856    0.0000 H   0  0  0  0  0  0  0  0  0  0  0  0
    3.2000    2.7713    0.0000 H   0  0  0  0  0  0  0  0  0  0  0  0
    3.2000    0.0000    0.0000 H   0  0  0  0  0  0  0  0  0  0  0  0
    1.3857   -0.8000    0.0000 O   0  0  0  0  0  0  0  0  0  0  0  0
    1.3857   -2.4000    0.0000 C   0  0  0  0  0  0  0  0  0  0  0  0
    2.7713   -3.2000    0.0000 H   0  0  0  0  0  0  0  0  0  0  0  0
    1.3857   -4.0000    0.0000 H   0  0  0  0  0  0  0  0  0  0  0  0
   -0.0001   -3.2000    0.0000 H   0  0  0  0  0  0  0  0  0  0  0  0
   -1.3856    0.8000    0.0000 O   0  0  0  0  0  0  0  0  0  0  0  0
   -2.3999    1.3856    0.0000 H   0  0  0  0  0  0  0  0  0  0  0  0
   -8.8000    1.3856    0.0000 H   0  0  0  0  0  0  0  0  0  0  0  0
   -8.0000    2.7713    0.0000 H   0  0  0  0  0  0  0  0  0  0  0  0
   -8.0000    0.0000    0.0000 H   0  0  0  0  0  0  0  0  0  0  0  0
  1  2  1  0  0  0  0
  2  3  1  0  0  0  0
  3  4  2  0  0  0  0
  3  5  1  0  0  0  0
  5  6  2  0  0  0  0
  6  7  1  0  0  0  0
  7  8  1  0  0  0  0
  7  9  1  0  0  0  0
  7 10  1  0  0  0  0
  6 11  1  0  0  0  0
 11 12  1  0  0  0  0
 12 13  1  0  0  0  0
 13 14  1  0  0  0  0
 14 15  1  0  0  0  0
 14 16  1  0  0  0  0
 14 17  1  0  0  0  0
 12 18  1  0  0  0  0
 18 19  1  0  0  0  0
 19 20  1  0  0  0  0
 19 21  1  0  0  0  0
 19 22  1  0  0  0  0
 12 23  2  0  0  0  0
  5 24  1  0  0  0  0
  1 25  1  0  0  0  0
  1 26  1  0  0  0  0
  1 27  1  0  0  0  0
M  END
> <CAS>
298-01-1

> <NAME>
MEVINPHOS (TRANS)

> <preferred_name>
cis-Mevinphos

> <iupac>
methyl 3-[(dimethoxyphosphoryl)oxy]but-2-enoate

> <SMILES>
C/C(=C\C(=O)OC)/OP(=O)(OC)OC

> <Canonical_QSARr>
CC(=CC(=O)OC)OP(=O)(OC)OC

> <InChI_Code_QSARr>
InChI=1S/C7H13O6P/c1-6(5-7(8)10-2)13-14(9,11-3)12-4/h5H,1-4H3/b6-5+

> <InChI Key_QSARr>
GEPDYQSQVLXLEU-AATRIKPKSA-N

> <Salt_Solvent>
?

> <WS Temperature>


> <WS Reference>
SHAROM,MS ET AL. (1980A)

> <dsstox_substance_id>
DTXSID0058358

> <LogMolar>
0.6495

$$$$
298-18-0, 1464-53-5
  -INDIGO-01081615412D

 12 13  0  0  0  0  0  0  0  0999 V2000
    0.0000   -0.0000    0.0000 C   0  0  0  0  0  0  0  0  0  0  0  0
    0.5472   -1.5035    0.0000 O   0  0  0  0  0  0  0  0  0  0  0  0
    1.5757   -0.2779    0.0000 C   0  0  0  0  0  0  0  0  0  0  0  0
    2.9613   -1.0779    0.0000 H   0  0  0  0  0  0  0  0  0  0  0  0
    2.1230    1.2256    0.0000 H   0  0  0  0  0  0  0  0  0  0  0  0
   -1.5757   -0.2779    0.0000 C   0  0  0  0  0  0  0  0  0  0  0  0
   -2.9614   -1.0779    0.0000 C   0  0  0  0  0  0  0  0  0  0  0  0
   -3.9898    0.1478    0.0000 H   0  0  0  0  0  0  0  0  0  0  0  0
   -3.9898   -2.3035    0.0000 H   0  0  0  0  0  0  0  0  0  0  0  0
   -1.5757   -1.8779    0.0000 O   0  0  0  0  0  0  0  0  0  0  0  0
   -2.1229    1.2256    0.0000 H   0  0  0  0  0  0  0  0  0  0  0  0
    0.0000    1.6000    0.0000 H   0  0  0  0  0  0  0  0  0  0  0  0
  1  2  1  0  0  0  0
  2  3  1  0  0  0  0
  3  1  1  0  0  0  0
  3  4  1  0  0  0  0
  3  5  1  0  0  0  0
  1  6  1  0  0  0  0
  6  7  1  0  0  0  0
  7  8  1  0  0  0  0
  7  9  1  0  0  0  0
  7 10  1  0  0  0  0
 10  6  1  0  0  0  0
  6 11  1  0  0  0  0
  1 12  1  0  0  0  0
M  END
> <CAS>
298-18-0, 1464-53-5

> <NAME>
1,2:3,4-DIEPOXYBUTANE DL, DIEPOXYBUTANE

> <preferred_name>
dl-Diepoxybutane

> <iupac>
(2S,2'S)-2,2'-bioxirane

> <SMILES>
C1O[C@@H]1[C@@H]1CO1

> <Canonical_QSARr>
C1OC1C1CO1

> <InChI_Code_QSARr>
InChI=1S/C4H6O2/c1-3(5-1)4-2-6-4/h3-4H,1-2H2

> <InChI Key_QSARr>
ZFIVKAOQEXOYFY-UHFFFAOYSA-N

> <Salt_Solvent>
?

> <WS Temperature>


> <WS Reference>
DEAN,JA (1985)

> <dsstox_substance_id>
DTXSID9020455

> <LogMolar>
1.065

$$$$
299-42-3
  -INDIGO-01081615412D

 27 27  0  0  0  0  0  0  0  0999 V2000
    0.0000    0.0000    0.0000 C   0  0  0  0  0  0  0  0  0  0  0  0
    0.5473    1.5035    0.0000 C   0  0  0  0  0  0  0  0  0  0  0  0
    1.0944    3.0070    0.0000 H   0  0  0  0  0  0  0  0  0  0  0  0
    2.1229    1.7813    0.0000 H   0  0  0  0  0  0  0  0  0  0  0  0
   -0.4812    2.7292    0.0000 H   0  0  0  0  0  0  0  0  0  0  0  0
    1.5035   -0.5473    0.0000 N   0  0  0  0  0  0  0  0  0  0  0  0
    2.7292    0.4813    0.0000 C   0  0  0  0  0  0  0  0  0  0  0  0
    4.2327   -0.0660    0.0000 H   0  0  0  0  0  0  0  0  0  0  0  0
    3.9549    1.5097    0.0000 H   0  0  0  0  0  0  0  0  0  0  0  0
    3.0071   -1.0944    0.0000 H   0  0  0  0  0  0  0  0  0  0  0  0
    1.7813   -2.1230    0.0000 H   0  0  0  0  0  0  0  0  0  0  0  0
   -1.6000    0.0000    0.0000 C   0  0  0  0  0  0  0  0  0  0  0  0
   -1.8778   -1.5757    0.0000 O   0  0  0  0  0  0  0  0  0  0  0  0
   -0.6522   -2.6041    0.0000 H   0  0  0  0  0  0  0  0  0  0  0  0
   -3.2001    0.0000    0.0000 C   0  0  0  0  0  0  0  0  0  0  0  0
   -4.0001    1.3856    0.0000 C   0  0  0  0  0  0  0  0  0  0  0  0
   -3.2001    2.7712    0.0000 H   0  0  0  0  0  0  0  0  0  0  0  0
   -5.5999    1.3856    0.0000 C   0  0  0  0  0  0  0  0  0  0  0  0
   -6.4000    2.7712    0.0000 H   0  0  0  0  0  0  0  0  0  0  0  0
   -6.4000    0.0000    0.0000 C   0  0  0  0  0  0  0  0  0  0  0  0
   -8.0000    0.0000    0.0000 H   0  0  0  0  0  0  0  0  0  0  0  0
   -5.5999   -1.3857    0.0000 C   0  0  0  0  0  0  0  0  0  0  0  0
   -6.4000   -2.7713    0.0000 H   0  0  0  0  0  0  0  0  0  0  0  0
   -4.0001   -1.3857    0.0000 C   0  0  0  0  0  0  0  0  0  0  0  0
   -3.2001   -2.7713    0.0000 H   0  0  0  0  0  0  0  0  0  0  0  0
   -1.6000    1.6000    0.0000 H   0  0  0  0  0  0  0  0  0  0  0  0
   -0.5473   -1.5035    0.0000 H   0  0  0  0  0  0  0  0  0  0  0  0
  1  2  1  0  0  0  0
  2  3  1  0  0  0  0
  2  4  1  0  0  0  0
  2  5  1  0  0  0  0
  1  6  1  0  0  0  0
  6  7  1  0  0  0  0
  7  8  1  0  0  0  0
  7  9  1  0  0  0  0
  7 10  1  0  0  0  0
  6 11  1  0  0  0  0
  1 12  1  0  0  0  0
 12 13  1  0  0  0  0
 13 14  1  0  0  0  0
 12 15  1  0  0  0  0
 15 16  4  0  0  0  0
 16 17  1  0  0  0  0
 16 18  4  0  0  0  0
 18 19  1  0  0  0  0
 18 20  4  0  0  0  0
 20 21  1  0  0  0  0
 20 22  4  0  0  0  0
 22 23  1  0  0  0  0
 22 24  4  0  0  0  0
 24 15  4  0  0  0  0
 24 25  1  0  0  0  0
 12 26  1  0  0  0  0
  1 27  1  0  0  0  0
M  END
> <CAS>
299-42-3

> <NAME>
(1R,2S)-(-)-EPHEDRINE

> <preferred_name>
Ephedrine

> <iupac>
C10H15NO

> <SMILES>
C[C@H](NC)[C@H](O)c1ccccc1

> <Canonical_QSARr>
CC(NC)C(O)c1ccccc1

> <InChI_Code_QSARr>
InChI=1S/C10H15NO/c1-8(11-2)10(12)9-6-4-3-5-7-9/h3-8,10-12H,1-2H3

> <InChI Key_QSARr>
KWGRBVOPPLSCSI-UHFFFAOYSA-N

> <Salt_Solvent>
?

> <WS Temperature>
30

> <WS Reference>
YALKOWSKY,SH & HE,Y (2003)

> <dsstox_substance_id>
DTXSID0022985

> <LogMolar>
-0.4147

$$$$
300-38-9
  -INDIGO-01081615412D

 24 24  0  0  0  0  0  0  0  0999 V2000
   -4.8000    2.7713    0.0000 Br  0  0  0  0  0  0  0  0  0  0  0  0
   -4.0000    1.3856    0.0000 C   0  0  0  0  0  0  0  0  0  0  0  0
   -4.8000    0.0000    0.0000 C   0  0  0  0  0  0  0  0  0  0  0  0
   -6.3999    0.0000    0.0000 O   0  0  0  0  0  0  0  0  0  0  0  0
   -7.2000   -1.3857    0.0000 H   0  0  0  0  0  0  0  0  0  0  0  0
   -4.0000   -1.3857    0.0000 C   0  0  0  0  0  0  0  0  0  0  0  0
   -4.8000   -2.7713    0.0000 Br  0  0  0  0  0  0  0  0  0  0  0  0
   -2.4000   -1.3857    0.0000 C   0  0  0  0  0  0  0  0  0  0  0  0
   -1.6000   -2.7713    0.0000 H   0  0  0  0  0  0  0  0  0  0  0  0
   -1.6000    0.0000    0.0000 C   0  0  0  0  0  0  0  0  0  0  0  0
   -0.0001    0.0000    0.0000 C   0  0  0  0  0  0  0  0  0  0  0  0
    1.6000    0.0000    0.0000 C   0  0  0  0  0  0  0  0  0  0  0  0
    3.1758   -0.2779    0.0000 C   0  0  0  0  0  0  0  0  0  0  0  0
    4.2041    0.9478    0.0000 O   0  0  0  0  0  0  0  0  0  0  0  0
    3.7229   -1.7813    0.0000 O   0  0  0  0  0  0  0  0  0  0  0  0
    5.2986   -2.0592    0.0000 H   0  0  0  0  0  0  0  0  0  0  0  0
    1.8779    1.5757    0.0000 N   0  0  0  0  0  0  0  0  0  0  0  0
    3.3813    2.1229    0.0000 H   0  0  0  0  0  0  0  0  0  0  0  0
    0.8494    2.8014    0.0000 H   0  0  0  0  0  0  0  0  0  0  0  0
    1.3222   -1.5757    0.0000 H   0  0  0  0  0  0  0  0  0  0  0  0
   -0.0001    1.6000    0.0000 H   0  0  0  0  0  0  0  0  0  0  0  0
   -0.0001   -1.6000    0.0000 H   0  0  0  0  0  0  0  0  0  0  0  0
   -2.4000    1.3856    0.0000 C   0  0  0  0  0  0  0  0  0  0  0  0
   -1.6000    2.7713    0.0000 H   0  0  0  0  0  0  0  0  0  0  0  0
  1  2  1  0  0  0  0
  2  3  4  0  0  0  0
  3  4  1  0  0  0  0
  4  5  1  0  0  0  0
  3  6  4  0  0  0  0
  6  7  1  0  0  0  0
  6  8  4  0  0  0  0
  8  9  1  0  0  0  0
  8 10  4  0  0  0  0
 10 11  1  0  0  0  0
 11 12  1  0  0  0  0
 12 13  1  0  0  0  0
 13 14  2  0  0  0  0
 13 15  1  0  0  0  0
 15 16  1  0  0  0  0
 12 17  1  0  0  0  0
 17 18  1  0  0  0  0
 17 19  1  0  0  0  0
 12 20  1  0  0  0  0
 11 21  1  0  0  0  0
 11 22  1  0  0  0  0
 10 23  4  0  0  0  0
 23  2  4  0  0  0  0
 23 24  1  0  0  0  0
M  END
> <CAS>
300-38-9

> <NAME>
L-Tyrosine, 3,5-dibromo-

> <preferred_name>
3,5-Dibromo-D-tyrosine

> <iupac>
C9H9Br2NO3

> <SMILES>
N[C@H](Cc1cc(Br)c(O)c(Br)c1)C(O)=O

> <Canonical_QSARr>
NC(Cc1cc(Br)c(O)c(Br)c1)C(O)=O

> <InChI_Code_QSARr>
InChI=1S/C9H9Br2NO3/c10-5-1-4(2-6(11)8(5)13)3-7(12)9(14)15/h1-2,7,13H,3,12H2,(H,14,15)

> <InChI Key_QSARr>
COESHZUDRKCEPA-UHFFFAOYSA-N

> <Salt_Solvent>
?

> <WS Temperature>
25

> <WS Reference>
MERCK INDEX (1996)

> <dsstox_substance_id>
DTXSID90350900

> <LogMolar>
-1.9281

$$$$
302-27-2
  -INDIGO-01081615412D

 93 99  0  0  0  0  0  0  0  0999 V2000
    0.0002   -0.0000    0.0000 C   0  0  0  0  0  0  0  0  0  0  0  0
    0.8000    1.3857    0.0000 C   0  0  0  0  0  0  0  0  0  0  0  0
    2.0256    2.4141    0.0000 O   0  0  0  0  0  0  0  0  0  0  0  0
    2.3035    3.9898    0.0000 C   0  0  0  0  0  0  0  0  0  0  0  0
    3.8070    4.5371    0.0000 H   0  0  0  0  0  0  0  0  0  0  0  0
    2.5814    5.5655    0.0000 H   0  0  0  0  0  0  0  0  0  0  0  0
    3.5290    2.9614    0.0000 H   0  0  0  0  0  0  0  0  0  0  0  0
    1.6106    1.5551    0.0000 H   0  0  0  0  0  0  0  0  0  0  0  0
   -0.0002    2.7712    0.0000 C   0  0  0  0  0  0  0  0  0  0  0  0
    1.5036    3.3184    0.0000 H   0  0  0  0  0  0  0  0  0  0  0  0
   -0.2778    4.3469    0.0000 H   0  0  0  0  0  0  0  0  0  0  0  0
   -1.5999    2.7712    0.0000 C   0  0  0  0  0  0  0  0  0  0  0  0
   -1.3223    4.3469    0.0000 O   0  0  0  0  0  0  0  0  0  0  0  0
   -2.5479    5.3755    0.0000 H   0  0  0  0  0  0  0  0  0  0  0  0
   -2.4001    3.4426    0.0000 H   0  0  0  0  0  0  0  0  0  0  0  0
   -2.4001    1.3857    0.0000 C   0  0  0  0  0  0  0  0  0  0  0  0
   -3.2000   -0.0000    0.0000 C   0  0  0  0  0  0  0  0  0  0  0  0
   -2.4001   -1.3857    0.0000 N   0  0  0  0  0  0  0  0  0  0  0  0
   -3.2000   -2.7712    0.0000 C   0  0  0  0  0  0  0  0  0  0  0  0
   -3.9999   -4.1569    0.0000 C   0  0  0  0  0  0  0  0  0  0  0  0
   -4.8001   -5.5426    0.0000 H   0  0  0  0  0  0  0  0  0  0  0  0
   -5.5999   -4.1569    0.0000 H   0  0  0  0  0  0  0  0  0  0  0  0
   -3.2000   -5.5426    0.0000 H   0  0  0  0  0  0  0  0  0  0  0  0
   -4.0046   -3.0139    0.0000 H   0  0  0  0  0  0  0  0  0  0  0  0
   -1.9744   -3.7996    0.0000 H   0  0  0  0  0  0  0  0  0  0  0  0
   -0.8000   -1.3857    0.0000 C   0  0  0  0  0  0  0  0  0  0  0  0
   -1.5999   -2.7712    0.0000 H   0  0  0  0  0  0  0  0  0  0  0  0
    0.0002   -2.7712    0.0000 C   0  0  0  0  0  0  0  0  0  0  0  0
   -1.5852   -0.9209    0.0000 C   0  0  0  0  0  0  0  0  0  0  0  0
   -2.5968   -2.1606    0.0000 O   0  0  0  0  0  0  0  0  0  0  0  0
   -4.1762   -1.9046    0.0000 C   0  0  0  0  0  0  0  0  0  0  0  0
   -5.7759   -1.9268    0.0000 H   0  0  0  0  0  0  0  0  0  0  0  0
   -4.7756   -2.4934    0.0000 H   0  0  0  0  0  0  0  0  0  0  0  0
   -5.2213   -0.6934    0.0000 H   0  0  0  0  0  0  0  0  0  0  0  0
   -0.8000    1.3857    0.0000 C   0  0  0  0  0  0  0  0  0  0  0  0
   -0.9227   -0.2097    0.0000 H   0  0  0  0  0  0  0  0  0  0  0  0
   -3.1849   -0.9488    0.0000 H   0  0  0  0  0  0  0  0  0  0  0  0
   -0.6686   -4.2249    0.0000 H   0  0  0  0  0  0  0  0  0  0  0  0
    1.5999   -2.7712    0.0000 C   0  0  0  0  0  0  0  0  0  0  0  0
    0.8000   -4.1569    0.0000 O   0  0  0  0  0  0  0  0  0  0  0  0
    1.5999   -5.5426    0.0000 C   0  0  0  0  0  0  0  0  0  0  0  0
    0.8000   -6.9281    0.0000 C   0  0  0  0  0  0  0  0  0  0  0  0
    0.0002   -8.3138    0.0000 H   0  0  0  0  0  0  0  0  0  0  0  0
    1.5999   -8.3138    0.0000 H   0  0  0  0  0  0  0  0  0  0  0  0
   -0.8000   -6.9281    0.0000 H   0  0  0  0  0  0  0  0  0  0  0  0
    3.1034   -4.9954    0.0000 O   0  0  0  0  0  0  0  0  0  0  0  0
    2.4001   -4.1569    0.0000 C   0  0  0  0  0  0  0  0  0  0  0  0
    3.9999   -4.1569    0.0000 C   0  0  0  0  0  0  0  0  0  0  0  0
    5.5036   -4.7042    0.0000 O   0  0  0  0  0  0  0  0  0  0  0  0
    5.7812   -6.2799    0.0000 C   0  0  0  0  0  0  0  0  0  0  0  0
    6.0592   -7.8555    0.0000 H   0  0  0  0  0  0  0  0  0  0  0  0
    7.2847   -6.8271    0.0000 H   0  0  0  0  0  0  0  0  0  0  0  0
    4.5557   -7.3083    0.0000 H   0  0  0  0  0  0  0  0  0  0  0  0
    3.9999   -5.7570    0.0000 H   0  0  0  0  0  0  0  0  0  0  0  0
    4.8001   -2.7712    0.0000 C   0  0  0  0  0  0  0  0  0  0  0  0
    3.9999   -1.3857    0.0000 C   0  0  0  0  0  0  0  0  0  0  0  0
    5.5999   -1.3857    0.0000 O   0  0  0  0  0  0  0  0  0  0  0  0
    6.6285   -0.1599    0.0000 C   0  0  0  0  0  0  0  0  0  0  0  0
    8.2041    0.1180    0.0000 C   0  0  0  0  0  0  0  0  0  0  0  0
    8.7515    1.6214    0.0000 C   0  0  0  0  0  0  0  0  0  0  0  0
    7.7229    2.8470    0.0000 H   0  0  0  0  0  0  0  0  0  0  0  0
   10.3271    1.8993    0.0000 C   0  0  0  0  0  0  0  0  0  0  0  0
   10.8744    3.4027    0.0000 H   0  0  0  0  0  0  0  0  0  0  0  0
   11.3556    0.6735    0.0000 C   0  0  0  0  0  0  0  0  0  0  0  0
   12.9312    0.9513    0.0000 H   0  0  0  0  0  0  0  0  0  0  0  0
   10.8083   -0.8300    0.0000 C   0  0  0  0  0  0  0  0  0  0  0  0
   11.8368   -2.0556    0.0000 H   0  0  0  0  0  0  0  0  0  0  0  0
    9.2326   -1.1079    0.0000 C   0  0  0  0  0  0  0  0  0  0  0  0
    8.6853   -2.6113    0.0000 H   0  0  0  0  0  0  0  0  0  0  0  0
    6.0811    1.3436    0.0000 O   0  0  0  0  0  0  0  0  0  0  0  0
    2.4001   -1.3857    0.0000 C   0  0  0  0  0  0  0  0  0  0  0  0
    0.8000   -1.3857    0.0000 H   0  0  0  0  0  0  0  0  0  0  0  0
    1.5999   -0.0000    0.0000 C   0  0  0  0  0  0  0  0  0  0  0  0
    3.9406   -0.5303    0.0000 C   0  0  0  0  0  0  0  0  0  0  0  0
    5.5178   -0.2599    0.0000 H   0  0  0  0  0  0  0  0  0  0  0  0
    3.9829    1.0691    0.0000 H   0  0  0  0  0  0  0  0  0  0  0  0
    2.1856    0.5856    0.0000 H   0  0  0  0  0  0  0  0  0  0  0  0
    3.4528    0.1180    0.0000 H   0  0  0  0  0  0  0  0  0  0  0  0
    6.3951   -2.8970    0.0000 O   0  0  0  0  0  0  0  0  0  0  0  0
    7.0836   -4.3414    0.0000 H   0  0  0  0  0  0  0  0  0  0  0  0
    2.6777   -5.7326    0.0000 O   0  0  0  0  0  0  0  0  0  0  0  0
    2.1307   -7.2361    0.0000 H   0  0  0  0  0  0  0  0  0  0  0  0
    1.0143   -4.9568    0.0000 H   0  0  0  0  0  0  0  0  0  0  0  0
   -4.4255    1.0284    0.0000 H   0  0  0  0  0  0  0  0  0  0  0  0
   -4.4255   -1.0284    0.0000 H   0  0  0  0  0  0  0  0  0  0  0  0
   -3.6257    2.4141    0.0000 C   0  0  0  0  0  0  0  0  0  0  0  0
   -4.4255    3.7998    0.0000 O   0  0  0  0  0  0  0  0  0  0  0  0
   -6.0256    3.7998    0.0000 C   0  0  0  0  0  0  0  0  0  0  0  0
   -6.8258    5.1853    0.0000 H   0  0  0  0  0  0  0  0  0  0  0  0
   -7.6257    3.7998    0.0000 H   0  0  0  0  0  0  0  0  0  0  0  0
   -5.2257    5.1853    0.0000 H   0  0  0  0  0  0  0  0  0  0  0  0
   -5.2013    2.1363    0.0000 H   0  0  0  0  0  0  0  0  0  0  0  0
   -3.1034    3.3184    0.0000 H   0  0  0  0  0  0  0  0  0  0  0  0
  1  2  1  0  0  0  0
  2  3  1  0  0  0  0
  3  4  1  0  0  0  0
  4  5  1  0  0  0  0
  4  6  1  0  0  0  0
  4  7  1  0  0  0  0
  2  8  1  0  0  0  0
  2  9  1  0  0  0  0
  9 10  1  0  0  0  0
  9 11  1  0  0  0  0
  9 12  1  0  0  0  0
 12 13  1  0  0  0  0
 13 14  1  0  0  0  0
 12 15  1  0  0  0  0
 12 16  1  0  0  0  0
 16 17  1  0  0  0  0
 17 18  1  0  0  0  0
 18 19  1  0  0  0  0
 19 20  1  0  0  0  0
 20 21  1  0  0  0  0
 20 22  1  0  0  0  0
 20 23  1  0  0  0  0
 19 24  1  0  0  0  0
 19 25  1  0  0  0  0
 18 26  1  0  0  0  0
 26  1  1  0  0  0  0
 26 27  1  0  0  0  0
 26 28  1  0  0  0  0
 28 29  1  0  0  0  0
 29 30  1  0  0  0  0
 30 31  1  0  0  0  0
 31 32  1  0  0  0  0
 31 33  1  0  0  0  0
 31 34  1  0  0  0  0
 29 35  1  0  0  0  0
 35  1  1  0  0  0  0
 35 16  1  0  0  0  0
 35 36  1  0  0  0  0
 29 37  1  0  0  0  0
 28 38  1  0  0  0  0
 28 39  1  0  0  0  0
 39 40  1  0  0  0  0
 40 41  1  0  0  0  0
 41 42  1  0  0  0  0
 42 43  1  0  0  0  0
 42 44  1  0  0  0  0
 42 45  1  0  0  0  0
 41 46  2  0  0  0  0
 39 47  1  0  0  0  0
 47 48  1  0  0  0  0
 48 49  1  0  0  0  0
 49 50  1  0  0  0  0
 50 51  1  0  0  0  0
 50 52  1  0  0  0  0
 50 53  1  0  0  0  0
 48 54  1  0  0  0  0
 48 55  1  0  0  0  0
 55 56  1  0  0  0  0
 56 57  1  0  0  0  0
 57 58  1  0  0  0  0
 58 59  1  0  0  0  0
 59 60  4  0  0  0  0
 60 61  1  0  0  0  0
 60 62  4  0  0  0  0
 62 63  1  0  0  0  0
 62 64  4  0  0  0  0
 64 65  1  0  0  0  0
 64 66  4  0  0  0  0
 66 67  1  0  0  0  0
 66 68  4  0  0  0  0
 68 59  4  0  0  0  0
 68 69  1  0  0  0  0
 58 70  2  0  0  0  0
 56 71  1  0  0  0  0
 71 39  1  0  0  0  0
 71 72  1  0  0  0  0
 71 73  1  0  0  0  0
 73  1  1  0  0  0  0
 73 74  1  0  0  0  0
 74 55  1  0  0  0  0
 74 75  1  0  0  0  0
 74 76  1  0  0  0  0
 73 77  1  0  0  0  0
 56 78  1  0  0  0  0
 55 79  1  0  0  0  0
 79 80  1  0  0  0  0
 47 81  1  0  0  0  0
 81 82  1  0  0  0  0
 47 83  1  0  0  0  0
 17 84  1  0  0  0  0
 17 85  1  0  0  0  0
 16 86  1  0  0  0  0
 86 87  1  0  0  0  0
 87 88  1  0  0  0  0
 88 89  1  0  0  0  0
 88 90  1  0  0  0  0
 88 91  1  0  0  0  0
 86 92  1  0  0  0  0
 86 93  1  0  0  0  0
M  END
> <CAS>
302-27-2

> <NAME>
ACONITINE

> <preferred_name>
Aconitine

> <iupac>
(1a,3a,6a,11b,14a,15a,16b)-8-(acetyloxy)-20-ethyl-3,13,15-trihydroxy-1,6,16-trimethoxy-4-(methoxymethyl)aconitan-14-yl benzoate

> <SMILES>
CC(=O)O[C@]12[C@@H](O)[C@H](OC)[C@@]3(O)C[C@H]([C@@H]1[C@H]3OC(=O)c1ccccc1)[C@@]13C4[C@@H]2[C@H](OC)[C@@H]1[C@@](C[N@@]4CC)(COC)[C@H](O)C[C@@H]3OC

> <Canonical_QSARr>
CC(=O)OC12C(O)C(OC)C3(O)CC(C1C3OC(=O)c1ccccc1)C13C4C2C(OC)C1C(CN4CC)(COC)C(O)CC3OC

> <InChI_Code_QSARr>
InChI=1S/C34H47NO11/c1-7-35-15-31(16-41-3)20(37)13-21(42-4)33-19-14-32(40)28(45-30(39)18-11-9-8-10-12-18)22(19)34(46-17(2)36,27(38)29(32)44-6)23(26(33)35)24(43-5)25(31)33/h8-12,19-29,37-38,40H,7,13-16H2,1-6H3

> <InChI Key_QSARr>
XFSBVAOIAHNAPC-UHFFFAOYSA-N

> <Salt_Solvent>
?

> <WS Temperature>
25

> <WS Reference>
SEIDELL,A (1941)

> <dsstox_substance_id>
DTXSID4046319

> <LogMolar>
-3.3187

$$$$
309-00-2
  -INDIGO-01081615412D

 26 29  0  0  0  0  0  0  0  0999 V2000
    0.0000    0.0000    0.0000 C   0  0  0  0  0  0  0  0  0  0  0  0
   -1.5912    0.1672    0.0000 C   0  0  0  0  0  0  0  0  0  0  0  0
   -2.2420   -1.2945    0.0000 C   0  0  0  0  0  0  0  0  0  0  0  0
   -3.8177   -1.0166    0.0000 Cl  0  0  0  0  0  0  0  0  0  0  0  0
   -3.5685   -2.1891    0.0000 Cl  0  0  0  0  0  0  0  0  0  0  0  0
   -1.0530   -2.3650    0.0000 C   0  0  0  0  0  0  0  0  0  0  0  0
   -0.7204   -3.9301    0.0000 Cl  0  0  0  0  0  0  0  0  0  0  0  0
   -2.6442   -2.1978    0.0000 C   0  0  0  0  0  0  0  0  0  0  0  0
   -2.9769   -0.6327    0.0000 C   0  0  0  0  0  0  0  0  0  0  0  0
   -4.4385    0.0181    0.0000 Cl  0  0  0  0  0  0  0  0  0  0  0  0
   -3.7148   -3.3868    0.0000 Cl  0  0  0  0  0  0  0  0  0  0  0  0
    0.3327   -1.5650    0.0000 C   0  0  0  0  0  0  0  0  0  0  0  0
    0.6653   -3.1301    0.0000 H   0  0  0  0  0  0  0  0  0  0  0  0
    1.9239   -1.7323    0.0000 C   0  0  0  0  0  0  0  0  0  0  0  0
    2.5747   -0.2706    0.0000 C   0  0  0  0  0  0  0  0  0  0  0  0
    4.1503   -0.5485    0.0000 H   0  0  0  0  0  0  0  0  0  0  0  0
    3.9012    0.6241    0.0000 H   0  0  0  0  0  0  0  0  0  0  0  0
    1.3857    0.8000    0.0000 C   0  0  0  0  0  0  0  0  0  0  0  0
    2.9769    0.6327    0.0000 C   0  0  0  0  0  0  0  0  0  0  0  0
    3.3095   -0.9323    0.0000 C   0  0  0  0  0  0  0  0  0  0  0  0
    4.7712   -1.5831    0.0000 H   0  0  0  0  0  0  0  0  0  0  0  0
    4.0475    1.8218    0.0000 H   0  0  0  0  0  0  0  0  0  0  0  0
    1.0530    2.3650    0.0000 H   0  0  0  0  0  0  0  0  0  0  0  0
    2.2565   -3.2973    0.0000 H   0  0  0  0  0  0  0  0  0  0  0  0
   -1.9239    1.7323    0.0000 Cl  0  0  0  0  0  0  0  0  0  0  0  0
   -0.3326    1.5651    0.0000 H   0  0  0  0  0  0  0  0  0  0  0  0
  1  2  1  0  0  0  0
  2  3  1  0  0  0  0
  3  4  1  0  0  0  0
  3  5  1  0  0  0  0
  3  6  1  0  0  0  0
  6  7  1  0  0  0  0
  6  8  1  0  0  0  0
  8  9  2  0  0  0  0
  9  2  1  0  0  0  0
  9 10  1  0  0  0  0
  8 11  1  0  0  0  0
  6 12  1  0  0  0  0
 12  1  1  0  0  0  0
 12 13  1  0  0  0  0
 12 14  1  0  0  0  0
 14 15  1  0  0  0  0
 15 16  1  0  0  0  0
 15 17  1  0  0  0  0
 15 18  1  0  0  0  0
 18  1  1  0  0  0  0
 18 19  1  0  0  0  0
 19 20  2  0  0  0  0
 20 14  1  0  0  0  0
 20 21  1  0  0  0  0
 19 22  1  0  0  0  0
 18 23  1  0  0  0  0
 14 24  1  0  0  0  0
  2 25  1  0  0  0  0
  1 26  1  0  0  0  0
M  END
> <CAS>
309-00-2

> <NAME>
ALDRIN

> <preferred_name>
Aldrin

> <iupac>
C12H8Cl6

> <SMILES>
ClC1(Cl)[C@@]2(Cl)[C@@H]3[C@@H]4C[C@@H](C=C4)[C@@H]3[C@]1(Cl)C(Cl)=C2Cl |&1:3,5,6,8,11,12|

> <Canonical_QSARr>
ClC1(Cl)C2(Cl)C3C4CC(C=C4)C3C1(Cl)C(Cl)=C2Cl

> <InChI_Code_QSARr>
InChI=1S/C12H8Cl6/c13-8-9(14)11(16)7-5-2-1-4(3-5)6(7)10(8,15)12(11,17)18/h1-2,4-7H,3H2

> <InChI Key_QSARr>
QBYJBZPUGVGKQQ-UHFFFAOYSA-N

> <Salt_Solvent>
?

> <WS Temperature>
25

> <WS Reference>
YALKOWSKY,SH & DANNENFELSER,RM (1992)

> <dsstox_substance_id>
DTXSID8020040

> <LogMolar>
-7.3317

$$$$
314-42-1
  -INDIGO-01081615412D

 24 24  0  0  0  0  0  0  0  0999 V2000
   -1.6000   -0.0000    0.0000 N   0  0  0  0  0  0  0  0  0  0  0  0
   -0.0001   -0.0000    0.0000 C   0  0  0  0  0  0  0  0  0  0  0  0
    1.5035    0.5472    0.0000 C   0  0  0  0  0  0  0  0  0  0  0  0
    3.0070    1.0945    0.0000 H   0  0  0  0  0  0  0  0  0  0  0  0
    2.7292   -0.4812    0.0000 H   0  0  0  0  0  0  0  0  0  0  0  0
    1.7813    2.1229    0.0000 H   0  0  0  0  0  0  0  0  0  0  0  0
   -0.0001   -1.6000    0.0000 C   0  0  0  0  0  0  0  0  0  0  0  0
   -0.0001   -3.2000    0.0000 H   0  0  0  0  0  0  0  0  0  0  0  0
    1.3856   -2.4000    0.0000 H   0  0  0  0  0  0  0  0  0  0  0  0
    1.3856   -0.8000    0.0000 H   0  0  0  0  0  0  0  0  0  0  0  0
   -0.0001    1.6000    0.0000 H   0  0  0  0  0  0  0  0  0  0  0  0
   -2.4000    1.3857    0.0000 C   0  0  0  0  0  0  0  0  0  0  0  0
   -1.6000    2.7713    0.0000 O   0  0  0  0  0  0  0  0  0  0  0  0
   -4.0000    1.3857    0.0000 N   0  0  0  0  0  0  0  0  0  0  0  0
   -4.7999    2.7713    0.0000 H   0  0  0  0  0  0  0  0  0  0  0  0
   -4.7999   -0.0000    0.0000 C   0  0  0  0  0  0  0  0  0  0  0  0
   -6.4000   -0.0000    0.0000 C   0  0  0  0  0  0  0  0  0  0  0  0
   -8.0000   -0.0000    0.0000 H   0  0  0  0  0  0  0  0  0  0  0  0
   -7.2000    1.3857    0.0000 H   0  0  0  0  0  0  0  0  0  0  0  0
   -7.2000   -1.3856    0.0000 H   0  0  0  0  0  0  0  0  0  0  0  0
   -4.0000   -1.3856    0.0000 C   0  0  0  0  0  0  0  0  0  0  0  0
   -4.7999   -2.7713    0.0000 Br  0  0  0  0  0  0  0  0  0  0  0  0
   -2.4000   -1.3856    0.0000 C   0  0  0  0  0  0  0  0  0  0  0  0
   -1.6000   -2.7713    0.0000 O   0  0  0  0  0  0  0  0  0  0  0  0
  1  2  1  0  0  0  0
  2  3  1  0  0  0  0
  3  4  1  0  0  0  0
  3  5  1  0  0  0  0
  3  6  1  0  0  0  0
  2  7  1  0  0  0  0
  7  8  1  0  0  0  0
  7  9  1  0  0  0  0
  7 10  1  0  0  0  0
  2 11  1  0  0  0  0
  1 12  1  0  0  0  0
 12 13  2  0  0  0  0
 12 14  1  0  0  0  0
 14 15  1  0  0  0  0
 14 16  1  0  0  0  0
 16 17  1  0  0  0  0
 17 18  1  0  0  0  0
 17 19  1  0  0  0  0
 17 20  1  0  0  0  0
 16 21  2  0  0  0  0
 21 22  1  0  0  0  0
 21 23  1  0  0  0  0
 23  1  1  0  0  0  0
 23 24  2  0  0  0  0
M  END
> <CAS>
314-42-1

> <NAME>
ISOCIL

> <preferred_name>
Isocil

> <iupac>
5-bromo-6-methyl-3-(propan-2-yl)pyrimidine-2,4(1H,3H)-dione

> <SMILES>
CC1NC(=O)N(C(C)C)C(=O)C=1Br

> <Canonical_QSARr>
CC1NC(=O)N(C(C)C)C(=O)C=1Br

> <InChI_Code_QSARr>
InChI=1S/C8H11BrN2O2/c1-4(2)11-7(12)6(9)5(3)10-8(11)13/h4H,1-3H3,(H,10,13)

> <InChI Key_QSARr>
PSYBGEADHLUXCS-UHFFFAOYSA-N

> <Salt_Solvent>
?

> <WS Temperature>


> <WS Reference>
SHIU,WY ET AL. (1990)

> <dsstox_substance_id>
DTXSID2042064

> <LogMolar>
-2.0604

$$$$
321-38-0
  -INDIGO-01081615412D

 18 19  0  0  0  0  0  0  0  0999 V2000
    0.0001   -0.0000    0.0000 C   0  0  0  0  0  0  0  0  0  0  0  0
   -1.3856    0.8000    0.0000 C   0  0  0  0  0  0  0  0  0  0  0  0
   -1.3856    2.4000    0.0000 H   0  0  0  0  0  0  0  0  0  0  0  0
   -2.7712   -0.0000    0.0000 C   0  0  0  0  0  0  0  0  0  0  0  0
   -4.1569    0.8000    0.0000 H   0  0  0  0  0  0  0  0  0  0  0  0
   -2.7712   -1.6000    0.0000 C   0  0  0  0  0  0  0  0  0  0  0  0
   -4.1569   -2.4000    0.0000 H   0  0  0  0  0  0  0  0  0  0  0  0
   -1.3856   -2.4000    0.0000 C   0  0  0  0  0  0  0  0  0  0  0  0
   -1.3856   -4.0000    0.0000 H   0  0  0  0  0  0  0  0  0  0  0  0
    0.0001   -1.6000    0.0000 C   0  0  0  0  0  0  0  0  0  0  0  0
    1.3856   -2.4000    0.0000 C   0  0  0  0  0  0  0  0  0  0  0  0
    1.3856   -4.0000    0.0000 F   0  0  0  0  0  0  0  0  0  0  0  0
    2.7713   -1.6000    0.0000 C   0  0  0  0  0  0  0  0  0  0  0  0
    4.1569   -2.4000    0.0000 H   0  0  0  0  0  0  0  0  0  0  0  0
    2.7713   -0.0000    0.0000 C   0  0  0  0  0  0  0  0  0  0  0  0
    4.1569    0.8000    0.0000 H   0  0  0  0  0  0  0  0  0  0  0  0
    1.3856    0.8000    0.0000 C   0  0  0  0  0  0  0  0  0  0  0  0
    1.3856    2.4000    0.0000 H   0  0  0  0  0  0  0  0  0  0  0  0
  1  2  4  0  0  0  0
  2  3  1  0  0  0  0
  2  4  4  0  0  0  0
  4  5  1  0  0  0  0
  4  6  4  0  0  0  0
  6  7  1  0  0  0  0
  6  8  4  0  0  0  0
  8  9  1  0  0  0  0
  8 10  4  0  0  0  0
 10  1  4  0  0  0  0
 10 11  4  0  0  0  0
 11 12  1  0  0  0  0
 11 13  4  0  0  0  0
 13 14  1  0  0  0  0
 13 15  4  0  0  0  0
 15 16  1  0  0  0  0
 15 17  4  0  0  0  0
 17  1  4  0  0  0  0
 17 18  1  0  0  0  0
M  END
> <CAS>
321-38-0

> <NAME>
1-FLUORONAPHTHALENE

> <preferred_name>
1-Fluoronaphthalene

> <iupac>
1-Fluoronaphthalene

> <SMILES>
Fc1cccc2ccccc21

> <Canonical_QSARr>
Fc1cccc2ccccc21

> <InChI_Code_QSARr>
InChI=1S/C10H7F/c11-10-7-3-5-8-4-1-2-6-9(8)10/h1-7H

> <InChI Key_QSARr>
CWLKTJOTWITYSI-UHFFFAOYSA-N

> <Salt_Solvent>
?

> <WS Temperature>
25

> <WS Reference>
WASIK,SP ET AL. (1981)

> <dsstox_substance_id>
DTXSID7059808

> <LogMolar>
-3.4527

$$$$
327-97-9
  -INDIGO-01081615412D

 43 44  0  0  0  0  0  0  0  0999 V2000
   13.1878    3.7913    0.0000 O   0  0  0  0  0  0  0  0  0  0  0  0
   12.1595    2.5657    0.0000 C   0  0  0  0  0  0  0  0  0  0  0  0
   10.5836    2.8435    0.0000 C   0  0  0  0  0  0  0  0  0  0  0  0
   10.0365    4.3470    0.0000 H   0  0  0  0  0  0  0  0  0  0  0  0
    9.5553    1.6179    0.0000 C   0  0  0  0  0  0  0  0  0  0  0  0
    7.9797    1.8957    0.0000 C   0  0  0  0  0  0  0  0  0  0  0  0
    6.9511    0.6700    0.0000 C   0  0  0  0  0  0  0  0  0  0  0  0
    5.3755    0.9478    0.0000 C   0  0  0  0  0  0  0  0  0  0  0  0
    4.3469   -0.2778    0.0000 O   0  0  0  0  0  0  0  0  0  0  0  0
    2.7713   -0.0000    0.0000 C   0  0  0  0  0  0  0  0  0  0  0  0
    1.3856    0.8000    0.0000 C   0  0  0  0  0  0  0  0  0  0  0  0
    2.4142    2.0256    0.0000 H   0  0  0  0  0  0  0  0  0  0  0  0
    0.3571    2.0256    0.0000 H   0  0  0  0  0  0  0  0  0  0  0  0
   -0.0000   -0.0000    0.0000 C   0  0  0  0  0  0  0  0  0  0  0  0
   -1.5756   -0.2778    0.0000 C   0  0  0  0  0  0  0  0  0  0  0  0
   -2.6042    0.9478    0.0000 O   0  0  0  0  0  0  0  0  0  0  0  0
   -4.1798    0.6700    0.0000 H   0  0  0  0  0  0  0  0  0  0  0  0
   -2.6042   -1.5035    0.0000 O   0  0  0  0  0  0  0  0  0  0  0  0
   -0.5474    1.5035    0.0000 O   0  0  0  0  0  0  0  0  0  0  0  0
   -2.1230    1.7813    0.0000 H   0  0  0  0  0  0  0  0  0  0  0  0
   -0.0000   -1.6000    0.0000 C   0  0  0  0  0  0  0  0  0  0  0  0
   -1.6000   -1.6000    0.0000 H   0  0  0  0  0  0  0  0  0  0  0  0
   -0.5474   -3.1035    0.0000 H   0  0  0  0  0  0  0  0  0  0  0  0
    1.3856   -2.4000    0.0000 C   0  0  0  0  0  0  0  0  0  0  0  0
    0.3571   -3.6257    0.0000 O   0  0  0  0  0  0  0  0  0  0  0  0
    0.9044   -5.1292    0.0000 H   0  0  0  0  0  0  0  0  0  0  0  0
    2.4142   -3.6257    0.0000 H   0  0  0  0  0  0  0  0  0  0  0  0
    2.7713   -1.6000    0.0000 C   0  0  0  0  0  0  0  0  0  0  0  0
    3.3186   -3.1035    0.0000 O   0  0  0  0  0  0  0  0  0  0  0  0
    4.8943   -3.3813    0.0000 H   0  0  0  0  0  0  0  0  0  0  0  0
    4.3469   -1.3222    0.0000 H   0  0  0  0  0  0  0  0  0  0  0  0
    3.3186    1.5035    0.0000 H   0  0  0  0  0  0  0  0  0  0  0  0
    4.8281    2.4513    0.0000 O   0  0  0  0  0  0  0  0  0  0  0  0
    7.4985   -0.8335    0.0000 H   0  0  0  0  0  0  0  0  0  0  0  0
    7.4323    3.3992    0.0000 H   0  0  0  0  0  0  0  0  0  0  0  0
   10.1024    0.1144    0.0000 C   0  0  0  0  0  0  0  0  0  0  0  0
    9.0741   -1.1114    0.0000 H   0  0  0  0  0  0  0  0  0  0  0  0
   11.6783   -0.1636    0.0000 C   0  0  0  0  0  0  0  0  0  0  0  0
   12.2254   -1.6671    0.0000 H   0  0  0  0  0  0  0  0  0  0  0  0
   12.7066    1.0622    0.0000 C   0  0  0  0  0  0  0  0  0  0  0  0
   14.2822    0.7843    0.0000 O   0  0  0  0  0  0  0  0  0  0  0  0
   14.8296   -0.7192    0.0000 H   0  0  0  0  0  0  0  0  0  0  0  0
   14.7635    3.5136    0.0000 H   0  0  0  0  0  0  0  0  0  0  0  0
  1  2  1  0  0  0  0
  2  3  4  0  0  0  0
  3  4  1  0  0  0  0
  3  5  4  0  0  0  0
  5  6  1  0  0  0  0
  6  7  2  0  0  0  0
  7  8  1  0  0  0  0
  8  9  1  0  0  0  0
  9 10  1  0  0  0  0
 10 11  1  0  0  0  0
 11 12  1  0  0  0  0
 11 13  1  0  0  0  0
 11 14  1  0  0  0  0
 14 15  1  0  0  0  0
 15 16  1  0  0  0  0
 16 17  1  0  0  0  0
 15 18  2  0  0  0  0
 14 19  1  0  0  0  0
 19 20  1  0  0  0  0
 14 21  1  0  0  0  0
 21 22  1  0  0  0  0
 21 23  1  0  0  0  0
 21 24  1  0  0  0  0
 24 25  1  0  0  0  0
 25 26  1  0  0  0  0
 24 27  1  0  0  0  0
 24 28  1  0  0  0  0
 28 10  1  0  0  0  0
 28 29  1  0  0  0  0
 29 30  1  0  0  0  0
 28 31  1  0  0  0  0
 10 32  1  0  0  0  0
  8 33  2  0  0  0  0
  7 34  1  0  0  0  0
  6 35  1  0  0  0  0
  5 36  4  0  0  0  0
 36 37  1  0  0  0  0
 36 38  4  0  0  0  0
 38 39  1  0  0  0  0
 38 40  4  0  0  0  0
 40  2  4  0  0  0  0
 40 41  1  0  0  0  0
 41 42  1  0  0  0  0
  1 43  1  0  0  0  0
M  END
> <CAS>
327-97-9

> <NAME>
Chlorogenic Acid

> <preferred_name>
Chlorogenic acid

> <iupac>
C16H18O9

> <SMILES>
OC(=O)[C@]1(O)C[C@@H](O)[C@@H](O)[C@@H](C1)OC(=O)C=Cc1cc(O)c(O)cc1

> <Canonical_QSARr>
OC(=O)C1(O)CC(O)C(O)C(C1)OC(=O)C=Cc1cc(O)c(O)cc1

> <InChI_Code_QSARr>
InChI=1S/C16H18O9/c17-9-3-1-8(5-10(9)18)2-4-13(20)25-12-7-16(24,15(22)23)6-11(19)14(12)21/h1-5,11-12,14,17-19,21,24H,6-7H2,(H,22,23)/b4-2+

> <InChI Key_QSARr>
CWVRJTMFETXNAD-DUXPYHPUSA-N

> <Salt_Solvent>
?

> <WS Temperature>
25

> <WS Reference>
MERCK INDEX (1996)

> <dsstox_substance_id>
DTXSID3024786

> <LogMolar>
-0.9473

$$$$
330-54-1
  -INDIGO-01081615412D

 24 24  0  0  0  0  0  0  0  0999 V2000
    7.2000    4.1569    0.0000 Cl  0  0  0  0  0  0  0  0  0  0  0  0
    6.4000    2.7713    0.0000 C   0  0  0  0  0  0  0  0  0  0  0  0
    4.8001    2.7713    0.0000 C   0  0  0  0  0  0  0  0  0  0  0  0
    4.0001    4.1569    0.0000 H   0  0  0  0  0  0  0  0  0  0  0  0
    4.0001    1.3856    0.0000 C   0  0  0  0  0  0  0  0  0  0  0  0
    2.3999    1.3856    0.0000 N   0  0  0  0  0  0  0  0  0  0  0  0
    1.5999    0.0000    0.0000 C   0  0  0  0  0  0  0  0  0  0  0  0
   -0.0000    0.0000    0.0000 N   0  0  0  0  0  0  0  0  0  0  0  0
   -0.8000   -1.3856    0.0000 C   0  0  0  0  0  0  0  0  0  0  0  0
   -1.6000   -2.7713    0.0000 H   0  0  0  0  0  0  0  0  0  0  0  0
   -2.4000   -1.3856    0.0000 H   0  0  0  0  0  0  0  0  0  0  0  0
   -0.0000   -2.7713    0.0000 H   0  0  0  0  0  0  0  0  0  0  0  0
   -0.8000    1.3856    0.0000 C   0  0  0  0  0  0  0  0  0  0  0  0
   -1.6000    2.7713    0.0000 H   0  0  0  0  0  0  0  0  0  0  0  0
   -2.4000    1.3856    0.0000 H   0  0  0  0  0  0  0  0  0  0  0  0
   -0.0000    2.7713    0.0000 H   0  0  0  0  0  0  0  0  0  0  0  0
    2.3999   -1.3856    0.0000 O   0  0  0  0  0  0  0  0  0  0  0  0
    1.5999    2.7713    0.0000 H   0  0  0  0  0  0  0  0  0  0  0  0
    4.8001    0.0000    0.0000 C   0  0  0  0  0  0  0  0  0  0  0  0
    4.0001   -1.3856    0.0000 H   0  0  0  0  0  0  0  0  0  0  0  0
    6.4000    0.0000    0.0000 C   0  0  0  0  0  0  0  0  0  0  0  0
    7.2000   -1.3856    0.0000 H   0  0  0  0  0  0  0  0  0  0  0  0
    7.2000    1.3856    0.0000 C   0  0  0  0  0  0  0  0  0  0  0  0
    8.8000    1.3856    0.0000 Cl  0  0  0  0  0  0  0  0  0  0  0  0
  1  2  1  0  0  0  0
  2  3  4  0  0  0  0
  3  4  1  0  0  0  0
  3  5  4  0  0  0  0
  5  6  1  0  0  0  0
  6  7  1  0  0  0  0
  7  8  1  0  0  0  0
  8  9  1  0  0  0  0
  9 10  1  0  0  0  0
  9 11  1  0  0  0  0
  9 12  1  0  0  0  0
  8 13  1  0  0  0  0
 13 14  1  0  0  0  0
 13 15  1  0  0  0  0
 13 16  1  0  0  0  0
  7 17  2  0  0  0  0
  6 18  1  0  0  0  0
  5 19  4  0  0  0  0
 19 20  1  0  0  0  0
 19 21  4  0  0  0  0
 21 22  1  0  0  0  0
 21 23  4  0  0  0  0
 23  2  4  0  0  0  0
 23 24  1  0  0  0  0
M  END
> <CAS>
330-54-1

> <NAME>
DIURON

> <preferred_name>
Diuron

> <iupac>
3-(3,4-dichlorophenyl)-1,1-dimethylurea

> <SMILES>
CN(C)C(=O)Nc1cc(Cl)c(Cl)cc1

> <Canonical_QSARr>
CN(C)C(=O)Nc1cc(Cl)c(Cl)cc1

> <InChI_Code_QSARr>
InChI=1S/C9H10Cl2N2O/c1-13(2)9(14)12-6-3-4-7(10)8(11)5-6/h3-5H,1-2H3,(H,12,14)

> <InChI Key_QSARr>
XMTQQYYKAHVGBJ-UHFFFAOYSA-N

> <Salt_Solvent>
?

> <WS Temperature>
25

> <WS Reference>
USDA PESTICIDE PROPERTIES DATABASE

> <dsstox_substance_id>
DTXSID0020446

> <LogMolar>
-3.7443

$$$$
352-34-1
  -INDIGO-01081615412D

 12 12  0  0  0  0  0  0  0  0999 V2000
    0.0000   -0.0000    0.0000 C   0  0  0  0  0  0  0  0  0  0  0  0
   -0.8000    1.3856    0.0000 F   0  0  0  0  0  0  0  0  0  0  0  0
   -0.8000   -1.3857    0.0000 C   0  0  0  0  0  0  0  0  0  0  0  0
   -2.4000   -1.3857    0.0000 H   0  0  0  0  0  0  0  0  0  0  0  0
    0.0000   -2.7713    0.0000 C   0  0  0  0  0  0  0  0  0  0  0  0
   -0.8000   -4.1569    0.0000 H   0  0  0  0  0  0  0  0  0  0  0  0
    1.6000   -2.7713    0.0000 C   0  0  0  0  0  0  0  0  0  0  0  0
    2.4000   -4.1569    0.0000 I   0  0  0  0  0  0  0  0  0  0  0  0
    2.4000   -1.3857    0.0000 C   0  0  0  0  0  0  0  0  0  0  0  0
    4.0000   -1.3857    0.0000 H   0  0  0  0  0  0  0  0  0  0  0  0
    1.6000   -0.0000    0.0000 C   0  0  0  0  0  0  0  0  0  0  0  0
    2.4000    1.3856    0.0000 H   0  0  0  0  0  0  0  0  0  0  0  0
  1  2  1  0  0  0  0
  1  3  4  0  0  0  0
  3  4  1  0  0  0  0
  3  5  4  0  0  0  0
  5  6  1  0  0  0  0
  5  7  4  0  0  0  0
  7  8  1  0  0  0  0
  7  9  4  0  0  0  0
  9 10  1  0  0  0  0
  9 11  4  0  0  0  0
 11  1  4  0  0  0  0
 11 12  1  0  0  0  0
M  END
> <CAS>
352-34-1

> <NAME>
Benzene, 1-fluoro-4-iodo-

> <preferred_name>
p-Fluoroiodobenzene

> <iupac>
1-Fluoro-4-iodobenzene

> <SMILES>
Fc1ccc(I)cc1

> <Canonical_QSARr>
Fc1ccc(I)cc1

> <InChI_Code_QSARr>
InChI=1S/C6H4FI/c7-5-1-3-6(8)4-2-5/h1-4H

> <InChI Key_QSARr>
KGNQDBQYEBMPFZ-UHFFFAOYSA-N

> <Salt_Solvent>
?

> <WS Temperature>
25

> <WS Reference>
YALKOWSKY,SH & DANNENFELSER,RM (1992)

> <dsstox_substance_id>
DTXSID7059854

> <LogMolar>
-3.1257

$$$$
371-62-0
  -INDIGO-01081615412D

  9  8  0  0  0  0  0  0  0  0999 V2000
   -0.0000    0.0000    0.0000 C   0  0  0  0  0  0  0  0  0  0  0  0
   -1.6000   -0.0000    0.0000 O   0  0  0  0  0  0  0  0  0  0  0  0
   -2.4000   -1.3856    0.0000 H   0  0  0  0  0  0  0  0  0  0  0  0
    1.6000    0.0000    0.0000 C   0  0  0  0  0  0  0  0  0  0  0  0
    3.2000    0.0000    0.0000 F   0  0  0  0  0  0  0  0  0  0  0  0
    2.4000   -1.3856    0.0000 H   0  0  0  0  0  0  0  0  0  0  0  0
    2.4000    1.3856    0.0000 H   0  0  0  0  0  0  0  0  0  0  0  0
   -0.0000    1.6000    0.0000 H   0  0  0  0  0  0  0  0  0  0  0  0
   -0.0000   -1.6000    0.0000 H   0  0  0  0  0  0  0  0  0  0  0  0
  1  2  1  0  0  0  0
  2  3  1  0  0  0  0
  1  4  1  0  0  0  0
  4  5  1  0  0  0  0
  4  6  1  0  0  0  0
  4  7  1  0  0  0  0
  1  8  1  0  0  0  0
  1  9  1  0  0  0  0
M  END
> <CAS>
371-62-0

> <NAME>
2-FLUOROETHANOL

> <preferred_name>
2-Fluoroethanol

> <iupac>
2-Fluoroethanol

> <SMILES>
OCCF

> <Canonical_QSARr>
OCCF

> <InChI_Code_QSARr>
InChI=1S/C2H5FO/c3-1-2-4/h4H,1-2H2

> <InChI Key_QSARr>
GGDYAKVUZMZKRV-UHFFFAOYSA-N

> <Salt_Solvent>
?

> <WS Temperature>
20

> <WS Reference>
YALKOWSKY,SH & DANNENFELSER,RM (1992)

> <dsstox_substance_id>
DTXSID0059902

> <LogMolar>
1.1934

$$$$
374-01-6
  -INDIGO-01081615412D

 12 11  0  0  0  0  0  0  0  0999 V2000
    2.4000    1.3856    0.0000 F   0  0  0  0  0  0  0  0  0  0  0  0
    1.6000    0.0000    0.0000 C   0  0  0  0  0  0  0  0  0  0  0  0
    0.0000    0.0000    0.0000 C   0  0  0  0  0  0  0  0  0  0  0  0
   -1.6000    0.0000    0.0000 C   0  0  0  0  0  0  0  0  0  0  0  0
   -3.2000    0.0000    0.0000 H   0  0  0  0  0  0  0  0  0  0  0  0
   -2.4000   -1.3856    0.0000 H   0  0  0  0  0  0  0  0  0  0  0  0
   -2.4000    1.3856    0.0000 H   0  0  0  0  0  0  0  0  0  0  0  0
    0.0000    1.6000    0.0000 O   0  0  0  0  0  0  0  0  0  0  0  0
    1.3856    2.4000    0.0000 H   0  0  0  0  0  0  0  0  0  0  0  0
    0.0000   -1.6000    0.0000 H   0  0  0  0  0  0  0  0  0  0  0  0
    3.2000    0.0000    0.0000 F   0  0  0  0  0  0  0  0  0  0  0  0
    2.4000   -1.3856    0.0000 F   0  0  0  0  0  0  0  0  0  0  0  0
  1  2  1  0  0  0  0
  2  3  1  0  0  0  0
  3  4  1  0  0  0  0
  4  5  1  0  0  0  0
  4  6  1  0  0  0  0
  4  7  1  0  0  0  0
  3  8  1  0  0  0  0
  8  9  1  0  0  0  0
  3 10  1  0  0  0  0
  2 11  1  0  0  0  0
  2 12  1  0  0  0  0
M  END
> <CAS>
374-01-6

> <NAME>
1,1,1-TRIFLUORO-2-PROPANOL

> <preferred_name>
3539-97-7

> <iupac>
C3H5F3O

> <SMILES>
C[C@H](O)C(F)(F)F

> <Canonical_QSARr>
CC(O)C(F)(F)F

> <InChI_Code_QSARr>
InChI=1S/C3H5F3O/c1-2(7)3(4,5)6/h2,7H,1H3

> <InChI Key_QSARr>
GILIYJDBJZWGBG-UHFFFAOYSA-N

> <Salt_Solvent>
?

> <WS Temperature>
25

> <WS Reference>
BEILSTEIN

> <dsstox_substance_id>
DTXSID10426459

> <LogMolar>
0.3094

$$$$
389-08-2
  -INDIGO-01081615412D

 29 30  0  0  0  0  0  0  0  0999 V2000
   -4.1569    2.4000    0.0000 O   0  0  0  0  0  0  0  0  0  0  0  0
   -2.7712    1.5999    0.0000 C   0  0  0  0  0  0  0  0  0  0  0  0
   -2.7712    0.0000    0.0000 C   0  0  0  0  0  0  0  0  0  0  0  0
   -4.1569   -0.8000    0.0000 C   0  0  0  0  0  0  0  0  0  0  0  0
   -5.5425    0.0000    0.0000 O   0  0  0  0  0  0  0  0  0  0  0  0
   -6.9282   -0.8000    0.0000 H   0  0  0  0  0  0  0  0  0  0  0  0
   -4.1569   -2.4000    0.0000 O   0  0  0  0  0  0  0  0  0  0  0  0
   -1.3856   -0.8000    0.0000 C   0  0  0  0  0  0  0  0  0  0  0  0
   -1.3856   -2.4000    0.0000 H   0  0  0  0  0  0  0  0  0  0  0  0
   -0.0001    0.0000    0.0000 N   0  0  0  0  0  0  0  0  0  0  0  0
    1.3856   -0.8000    0.0000 C   0  0  0  0  0  0  0  0  0  0  0  0
    2.7713   -1.6001    0.0000 C   0  0  0  0  0  0  0  0  0  0  0  0
    4.1569   -2.4000    0.0000 H   0  0  0  0  0  0  0  0  0  0  0  0
    2.7713   -3.2000    0.0000 H   0  0  0  0  0  0  0  0  0  0  0  0
    4.1569   -0.8000    0.0000 H   0  0  0  0  0  0  0  0  0  0  0  0
    0.5857   -2.1856    0.0000 H   0  0  0  0  0  0  0  0  0  0  0  0
    2.1857    0.5857    0.0000 H   0  0  0  0  0  0  0  0  0  0  0  0
   -0.0001    1.5999    0.0000 C   0  0  0  0  0  0  0  0  0  0  0  0
    1.3856    2.4000    0.0000 N   0  0  0  1  0  0  0  0  0  0  0  0
    1.3856    4.0000    0.0000 C   0  0  0  0  0  0  0  0  0  0  0  0
    2.7713    4.8001    0.0000 C   0  0  0  0  0  0  0  0  0  0  0  0
    4.1569    5.6000    0.0000 H   0  0  0  0  0  0  0  0  0  0  0  0
    2.7713    6.4000    0.0000 H   0  0  0  0  0  0  0  0  0  0  0  0
    4.1569    4.0000    0.0000 H   0  0  0  0  0  0  0  0  0  0  0  0
   -0.0001    4.7999    0.0000 C   0  0  0  0  0  0  0  0  0  0  0  0
   -1.3856    4.0000    0.0000 C   0  0  0  0  0  0  0  0  0  0  0  0
   -2.7712    4.7999    0.0000 H   0  0  0  0  0  0  0  0  0  0  0  0
   -1.3856    2.4000    0.0000 C   0  0  0  0  0  0  0  0  0  0  0  0
   -0.0001    6.4000    0.0000 H   0  0  0  0  0  0  0  0  0  0  0  0
  1  2  2  0  0  0  0
  2  3  1  0  0  0  0
  3  4  1  0  0  0  0
  4  5  1  0  0  0  0
  5  6  1  0  0  0  0
  4  7  2  0  0  0  0
  3  8  2  0  0  0  0
  8  9  1  0  0  0  0
  8 10  1  0  0  0  0
 10 11  1  0  0  0  0
 11 12  1  0  0  0  0
 12 13  1  0  0  0  0
 12 14  1  0  0  0  0
 12 15  1  0  0  0  0
 11 16  1  0  0  0  0
 11 17  1  0  0  0  0
 10 18  1  0  0  0  0
 18 19  4  0  0  0  0
 19 20  4  0  0  0  0
 20 21  1  0  0  0  0
 21 22  1  0  0  0  0
 21 23  1  0  0  0  0
 21 24  1  0  0  0  0
 20 25  4  0  0  0  0
 25 26  4  0  0  0  0
 26 27  1  0  0  0  0
 26 28  4  0  0  0  0
 28  2  1  0  0  0  0
 28 18  4  0  0  0  0
 25 29  1  0  0  0  0
M  END
> <CAS>
389-08-2

> <NAME>
NALIDIXIC ACID

> <preferred_name>
Nalidixic acid

> <iupac>
1-ethyl-7-methyl-4-oxo-1,4-dihydro-1,8-naphthyridine-3-carboxylic acid

> <SMILES>
Cc1ccc2c([n]1)N(CC)C=C(C(O)=O)C2=O

> <Canonical_QSARr>
Cc1ccc2c([n]1)N(CC)C=C(C(O)=O)C2=O

> <InChI_Code_QSARr>
InChI=1S/C12H12N2O3/c1-3-14-6-9(12(16)17)10(15)8-5-4-7(2)13-11(8)14/h4-6H,3H2,1-2H3,(H,16,17)

> <InChI Key_QSARr>
MHWLWQUZZRMNGJ-UHFFFAOYSA-N

> <Salt_Solvent>
?

> <WS Temperature>
23

> <WS Reference>
MERCK INDEX (1996)

> <dsstox_substance_id>
DTXSID3020912

> <LogMolar>
-3.3659

$$$$
420-04-2
  -INDIGO-01081615412D

  5  4  0  0  0  0  0  0  0  0999 V2000
    1.6000    0.0000    0.0000 C   0  0  0  0  0  0  0  0  0  0  0  0
   -0.0000    0.0000    0.0000 N   0  0  0  0  0  0  0  0  0  0  0  0
   -0.8000    1.3856    0.0000 H   0  0  0  0  0  0  0  0  0  0  0  0
   -0.8000   -1.3856    0.0000 H   0  0  0  0  0  0  0  0  0  0  0  0
    3.2000    0.0000    0.0000 N   0  0  0  0  0  0  0  0  0  0  0  0
  1  2  1  0  0  0  0
  2  3  1  0  0  0  0
  2  4  1  0  0  0  0
  1  5  3  0  0  0  0
M  END
> <CAS>
420-04-2

> <NAME>
CYANAMIDE

> <preferred_name>
Cyanamide

> <iupac>
cyanamide

> <SMILES>
NC#N

> <Canonical_QSARr>
NC#N

> <InChI_Code_QSARr>
InChI=1S/CH2N2/c2-1-3/h2H2

> <InChI Key_QSARr>
XZMCDFZZKTWFGF-UHFFFAOYSA-N

> <Salt_Solvent>
?

> <WS Temperature>
20

> <WS Reference>
TOMLIN,C (2003)

> <dsstox_substance_id>
DTXSID9034490

> <LogMolar>
1.0753

$$$$
434-03-7
  -INDIGO-01081615412D

 51 54  0  0  0  0  0  0  0  0999 V2000
    4.7999   -0.0000    0.0000 C   0  0  0  0  0  0  0  0  0  0  0  0
    4.3887    0.4902    0.0000 C   0  0  0  0  0  0  0  0  0  0  0  0
    4.9358    1.9938    0.0000 H   0  0  0  0  0  0  0  0  0  0  0  0
    4.0001    1.3856    0.0000 H   0  0  0  0  0  0  0  0  0  0  0  0
    5.9887    0.4902    0.0000 H   0  0  0  0  0  0  0  0  0  0  0  0
    5.5999    1.3856    0.0000 C   0  0  0  0  0  0  0  0  0  0  0  0
    5.8779    2.9613    0.0000 H   0  0  0  0  0  0  0  0  0  0  0  0
    5.0528    2.8892    0.0000 H   0  0  0  0  0  0  0  0  0  0  0  0
    7.1999    1.3856    0.0000 C   0  0  0  0  0  0  0  0  0  0  0  0
    8.7035    1.9329    0.0000 H   0  0  0  0  0  0  0  0  0  0  0  0
    6.9222    2.9613    0.0000 H   0  0  0  0  0  0  0  0  0  0  0  0
    8.0000   -0.0000    0.0000 C   0  0  0  0  0  0  0  0  0  0  0  0
    9.6000   -0.0000    0.0000 O   0  0  0  0  0  0  0  0  0  0  0  0
    7.1999   -1.3856    0.0000 C   0  0  0  0  0  0  0  0  0  0  0  0
    8.0000   -2.7712    0.0000 H   0  0  0  0  0  0  0  0  0  0  0  0
    5.5999   -1.3856    0.0000 C   0  0  0  0  0  0  0  0  0  0  0  0
    4.7999   -2.7712    0.0000 C   0  0  0  0  0  0  0  0  0  0  0  0
    4.5222   -4.3470    0.0000 H   0  0  0  0  0  0  0  0  0  0  0  0
    6.3035   -3.3186    0.0000 H   0  0  0  0  0  0  0  0  0  0  0  0
    3.2001   -2.7712    0.0000 C   0  0  0  0  0  0  0  0  0  0  0  0
    1.9743   -3.7998    0.0000 H   0  0  0  0  0  0  0  0  0  0  0  0
    3.4778   -4.3470    0.0000 H   0  0  0  0  0  0  0  0  0  0  0  0
    2.4001   -1.3856    0.0000 C   0  0  0  0  0  0  0  0  0  0  0  0
    0.8000   -1.3856    0.0000 C   0  0  0  0  0  0  0  0  0  0  0  0
   -0.2706   -2.5746    0.0000 C   0  0  0  0  0  0  0  0  0  0  0  0
   -1.0706   -3.9603    0.0000 H   0  0  0  0  0  0  0  0  0  0  0  0
    0.3801   -4.0364    0.0000 H   0  0  0  0  0  0  0  0  0  0  0  0
   -1.7323   -1.9239    0.0000 C   0  0  0  0  0  0  0  0  0  0  0  0
   -3.2972   -1.5913    0.0000 H   0  0  0  0  0  0  0  0  0  0  0  0
   -2.2268   -3.4456    0.0000 H   0  0  0  0  0  0  0  0  0  0  0  0
   -1.5649   -0.3327    0.0000 C   0  0  0  0  0  0  0  0  0  0  0  0
   -1.7323    1.2586    0.0000 O   0  0  0  0  0  0  0  0  0  0  0  0
   -3.1940    1.9094    0.0000 H   0  0  0  0  0  0  0  0  0  0  0  0
   -3.1650   -0.3327    0.0000 C   0  0  0  0  0  0  0  0  0  0  0  0
   -4.7650   -0.3327    0.0000 C   0  0  0  0  0  0  0  0  0  0  0  0
   -6.3650   -0.3327    0.0000 H   0  0  0  0  0  0  0  0  0  0  0  0
    0.0000   -0.0000    0.0000 C   0  0  0  0  0  0  0  0  0  0  0  0
   -0.9406    1.2945    0.0000 C   0  0  0  0  0  0  0  0  0  0  0  0
   -2.0914    2.4059    0.0000 H   0  0  0  0  0  0  0  0  0  0  0  0
   -1.1077    2.8856    0.0000 H   0  0  0  0  0  0  0  0  0  0  0  0
   -2.4785    0.8534    0.0000 H   0  0  0  0  0  0  0  0  0  0  0  0
    0.8000    1.3856    0.0000 C   0  0  0  0  0  0  0  0  0  0  0  0
    2.4001    1.3856    0.0000 C   0  0  0  0  0  0  0  0  0  0  0  0
    3.2001    2.7713    0.0000 H   0  0  0  0  0  0  0  0  0  0  0  0
    2.1221    2.9613    0.0000 H   0  0  0  0  0  0  0  0  0  0  0  0
    3.2001   -0.0000    0.0000 C   0  0  0  0  0  0  0  0  0  0  0  0
    3.1762    0.9758    0.0000 H   0  0  0  0  0  0  0  0  0  0  0  0
    1.0778    2.9613    0.0000 H   0  0  0  0  0  0  0  0  0  0  0  0
   -0.2285    2.6113    0.0000 H   0  0  0  0  0  0  0  0  0  0  0  0
    0.6327   -2.9769    0.0000 H   0  0  0  0  0  0  0  0  0  0  0  0
    1.6001   -2.7712    0.0000 H   0  0  0  0  0  0  0  0  0  0  0  0
  1  2  1  0  0  0  0
  2  3  1  0  0  0  0
  2  4  1  0  0  0  0
  2  5  1  0  0  0  0
  1  6  1  0  0  0  0
  6  7  1  0  0  0  0
  6  8  1  0  0  0  0
  6  9  1  0  0  0  0
  9 10  1  0  0  0  0
  9 11  1  0  0  0  0
  9 12  1  0  0  0  0
 12 13  2  0  0  0  0
 12 14  1  0  0  0  0
 14 15  1  0  0  0  0
 14 16  2  0  0  0  0
 16  1  1  0  0  0  0
 16 17  1  0  0  0  0
 17 18  1  0  0  0  0
 17 19  1  0  0  0  0
 17 20  1  0  0  0  0
 20 21  1  0  0  0  0
 20 22  1  0  0  0  0
 20 23  1  0  0  0  0
 23 24  1  0  0  0  0
 24 25  1  0  0  0  0
 25 26  1  0  0  0  0
 25 27  1  0  0  0  0
 25 28  1  0  0  0  0
 28 29  1  0  0  0  0
 28 30  1  0  0  0  0
 28 31  1  0  0  0  0
 31 32  1  0  0  0  0
 32 33  1  0  0  0  0
 31 34  1  0  0  0  0
 34 35  3  0  0  0  0
 35 36  1  0  0  0  0
 31 37  1  0  0  0  0
 37 24  1  0  0  0  0
 37 38  1  0  0  0  0
 38 39  1  0  0  0  0
 38 40  1  0  0  0  0
 38 41  1  0  0  0  0
 37 42  1  0  0  0  0
 42 43  1  0  0  0  0
 43 44  1  0  0  0  0
 43 45  1  0  0  0  0
 43 46  1  0  0  0  0
 46  1  1  0  0  0  0
 46 23  1  0  0  0  0
 46 47  1  0  0  0  0
 42 48  1  0  0  0  0
 42 49  1  0  0  0  0
 24 50  1  0  0  0  0
 23 51  1  0  0  0  0
M  END
> <CAS>
434-03-7

> <NAME>
Ethisterone

> <preferred_name>
Ethisterone

> <iupac>
(17alpha)-17-hydroxypregn-4-en-20-yn-3-one

> <SMILES>
C[C@]12CC[C@H]3[C@@H](CCC4=CC(=O)CC[C@@]43C)[C@@H]1CC[C@@]2(O)C#C

> <Canonical_QSARr>
CC12CCC3C(CCC4=CC(=O)CCC43C)C1CCC2(O)C#C

> <InChI_Code_QSARr>
InChI=1S/C21H28O2/c1-4-21(23)12-9-18-16-6-5-14-13-15(22)7-10-19(14,2)17(16)8-11-20(18,21)3/h1,13,16-18,23H,5-12H2,2-3H3

> <InChI Key_QSARr>
CHNXZKVNWQUJIB-UHFFFAOYSA-N

> <Salt_Solvent>
?

> <WS Temperature>
27

> <WS Reference>
YALKOWSKY,SH & DANNENFELSER,RM (1992)

> <dsstox_substance_id>
DTXSID2023016

> <LogMolar>
-5.6576

$$$$
445-29-4
  -INDIGO-01081615412D

 15 15  0  0  0  0  0  0  0  0999 V2000
    2.4000    1.3856    0.0000 C   0  0  0  0  0  0  0  0  0  0  0  0
    0.8000    1.3856    0.0000 C   0  0  0  0  0  0  0  0  0  0  0  0
    0.0000    2.7713    0.0000 H   0  0  0  0  0  0  0  0  0  0  0  0
    0.0000    0.0000    0.0000 C   0  0  0  0  0  0  0  0  0  0  0  0
   -1.6000    0.0000    0.0000 C   0  0  0  0  0  0  0  0  0  0  0  0
   -2.4001   -1.3856    0.0000 O   0  0  0  0  0  0  0  0  0  0  0  0
   -4.0000   -1.3856    0.0000 H   0  0  0  0  0  0  0  0  0  0  0  0
   -2.4001    1.3856    0.0000 O   0  0  0  0  0  0  0  0  0  0  0  0
    0.8000   -1.3856    0.0000 C   0  0  0  0  0  0  0  0  0  0  0  0
    0.0000   -2.7713    0.0000 F   0  0  0  0  0  0  0  0  0  0  0  0
    2.4000   -1.3856    0.0000 C   0  0  0  0  0  0  0  0  0  0  0  0
    3.2001   -2.7713    0.0000 H   0  0  0  0  0  0  0  0  0  0  0  0
    3.2001    0.0000    0.0000 C   0  0  0  0  0  0  0  0  0  0  0  0
    4.8000    0.0000    0.0000 H   0  0  0  0  0  0  0  0  0  0  0  0
    3.2001    2.7713    0.0000 H   0  0  0  0  0  0  0  0  0  0  0  0
  1  2  4  0  0  0  0
  2  3  1  0  0  0  0
  2  4  4  0  0  0  0
  4  5  1  0  0  0  0
  5  6  1  0  0  0  0
  6  7  1  0  0  0  0
  5  8  2  0  0  0  0
  4  9  4  0  0  0  0
  9 10  1  0  0  0  0
  9 11  4  0  0  0  0
 11 12  1  0  0  0  0
 11 13  4  0  0  0  0
 13  1  4  0  0  0  0
 13 14  1  0  0  0  0
  1 15  1  0  0  0  0
M  END
> <CAS>
445-29-4

> <NAME>
2-FLUOROBENZOIC ACID

> <preferred_name>
Benzoic acid, 2-fluoro-

> <iupac>
2-Fluorobenzoic acid

> <SMILES>
OC(=O)c1ccccc1F

> <Canonical_QSARr>
OC(=O)c1ccccc1F

> <InChI_Code_QSARr>
InChI=1S/C7H5FO2/c8-6-4-2-1-3-5(6)7(9)10/h1-4H,(H,9,10)

> <InChI Key_QSARr>
NSTREUWFTAOOKS-UHFFFAOYSA-N

> <Salt_Solvent>
?

> <WS Temperature>
25

> <WS Reference>
YALKOWSKY,SH & DANNENFELSER,RM (1992)

> <dsstox_substance_id>
DTXSID1060001

> <LogMolar>
-1.2892

$$$$
452-35-7
  -INDIGO-01081615412D

 26 27  0  0  0  0  0  0  0  0999 V2000
    2.7712   -0.0000    0.0000 C   0  0  0  0  0  0  0  0  0  0  0  0
    1.3857    0.8000    0.0000 C   0  0  0  0  0  0  0  0  0  0  0  0
    1.3857    2.4000    0.0000 H   0  0  0  0  0  0  0  0  0  0  0  0
   -0.0000   -0.0000    0.0000 C   0  0  0  0  0  0  0  0  0  0  0  0
   -1.5217    0.4944    0.0000 S   0  0  0  1  0  0  0  0  0  0  0  0
   -2.4621   -0.8000    0.0000 C   0  0  0  0  0  0  0  0  0  0  0  0
   -1.5217   -2.0944    0.0000 N   0  0  0  1  0  0  0  0  0  0  0  0
   -0.0000   -1.6000    0.0000 C   0  0  0  0  0  0  0  0  0  0  0  0
    1.3857   -2.4000    0.0000 C   0  0  0  0  0  0  0  0  0  0  0  0
    1.3857   -4.0000    0.0000 H   0  0  0  0  0  0  0  0  0  0  0  0
    2.7712   -1.6000    0.0000 C   0  0  0  0  0  0  0  0  0  0  0  0
    4.1569   -2.4000    0.0000 H   0  0  0  0  0  0  0  0  0  0  0  0
   -4.0620   -0.8000    0.0000 S   0  0  0  0  0  0  0  0  0  0  0  0
   -4.0620   -2.4000    0.0000 O   0  0  0  0  0  0  0  0  0  0  0  0
   -4.0620    0.8000    0.0000 O   0  0  0  0  0  0  0  0  0  0  0  0
   -5.6622   -0.8000    0.0000 N   0  0  0  0  0  0  0  0  0  0  0  0
   -6.4621   -2.1856    0.0000 H   0  0  0  0  0  0  0  0  0  0  0  0
   -6.4621    0.5856    0.0000 H   0  0  0  0  0  0  0  0  0  0  0  0
    4.1569    0.8000    0.0000 O   0  0  0  0  0  0  0  0  0  0  0  0
    5.5426   -0.0000    0.0000 C   0  0  0  0  0  0  0  0  0  0  0  0
    6.9281   -0.8000    0.0000 C   0  0  0  0  0  0  0  0  0  0  0  0
    8.3138   -1.6000    0.0000 H   0  0  0  0  0  0  0  0  0  0  0  0
    8.3138   -0.0000    0.0000 H   0  0  0  0  0  0  0  0  0  0  0  0
    6.9281   -2.4000    0.0000 H   0  0  0  0  0  0  0  0  0  0  0  0
    6.3426    1.3856    0.0000 H   0  0  0  0  0  0  0  0  0  0  0  0
    4.7427   -1.3856    0.0000 H   0  0  0  0  0  0  0  0  0  0  0  0
  1  2  4  0  0  0  0
  2  3  1  0  0  0  0
  2  4  4  0  0  0  0
  4  5  4  0  0  0  0
  5  6  4  0  0  0  0
  6  7  4  0  0  0  0
  7  8  4  0  0  0  0
  8  4  4  0  0  0  0
  8  9  4  0  0  0  0
  9 10  1  0  0  0  0
  9 11  4  0  0  0  0
 11  1  4  0  0  0  0
 11 12  1  0  0  0  0
  6 13  1  0  0  0  0
 13 14  2  0  0  0  0
 13 15  2  0  0  0  0
 13 16  1  0  0  0  0
 16 17  1  0  0  0  0
 16 18  1  0  0  0  0
  1 19  1  0  0  0  0
 19 20  1  0  0  0  0
 20 21  1  0  0  0  0
 21 22  1  0  0  0  0
 21 23  1  0  0  0  0
 21 24  1  0  0  0  0
 20 25  1  0  0  0  0
 20 26  1  0  0  0  0
M  END
> <CAS>
452-35-7

> <NAME>
ETHOXYZOLAMIDE

> <preferred_name>
Ethoxzolamide

> <iupac>
6-ethoxy-1,3-benzothiazole-2-sulfonamide

> <SMILES>
CCOc1cc2[s]c([n]c2cc1)S(N)(=O)=O

> <Canonical_QSARr>
CCOc1cc2[s]c([n]c2cc1)S(N)(=O)=O

> <InChI_Code_QSARr>
InChI=1S/C9H10N2O3S2/c1-2-14-6-3-4-7-8(5-6)15-9(11-7)16(10,12)13/h3-5H,2H2,1H3,(H2,10,12,13)

> <InChI Key_QSARr>
OUZWUKMCLIBBOG-UHFFFAOYSA-N

> <Salt_Solvent>
?

> <WS Temperature>


> <WS Reference>
YALKOWSKY,SH & DANNENFELSER,RM (1992)

> <dsstox_substance_id>
DTXSID1023021

> <LogMolar>
-3.8101

$$$$
456-22-4
  -INDIGO-01081615412D

 15 15  0  0  0  0  0  0  0  0999 V2000
    0.8000    1.3856    0.0000 C   0  0  0  0  0  0  0  0  0  0  0  0
    0.0000   -0.0000    0.0000 C   0  0  0  0  0  0  0  0  0  0  0  0
   -1.6000   -0.0000    0.0000 C   0  0  0  0  0  0  0  0  0  0  0  0
   -2.4001   -1.3856    0.0000 O   0  0  0  0  0  0  0  0  0  0  0  0
   -4.0000   -1.3856    0.0000 H   0  0  0  0  0  0  0  0  0  0  0  0
   -2.4001    1.3856    0.0000 O   0  0  0  0  0  0  0  0  0  0  0  0
    0.8000   -1.3856    0.0000 C   0  0  0  0  0  0  0  0  0  0  0  0
    0.0000   -2.7713    0.0000 H   0  0  0  0  0  0  0  0  0  0  0  0
    2.4000   -1.3856    0.0000 C   0  0  0  0  0  0  0  0  0  0  0  0
    3.2001   -2.7713    0.0000 H   0  0  0  0  0  0  0  0  0  0  0  0
    3.2001    0.0000    0.0000 C   0  0  0  0  0  0  0  0  0  0  0  0
    4.8000    0.0000    0.0000 F   0  0  0  0  0  0  0  0  0  0  0  0
    2.4000    1.3856    0.0000 C   0  0  0  0  0  0  0  0  0  0  0  0
    3.2001    2.7713    0.0000 H   0  0  0  0  0  0  0  0  0  0  0  0
    0.0000    2.7713    0.0000 H   0  0  0  0  0  0  0  0  0  0  0  0
  1  2  4  0  0  0  0
  2  3  1  0  0  0  0
  3  4  1  0  0  0  0
  4  5  1  0  0  0  0
  3  6  2  0  0  0  0
  2  7  4  0  0  0  0
  7  8  1  0  0  0  0
  7  9  4  0  0  0  0
  9 10  1  0  0  0  0
  9 11  4  0  0  0  0
 11 12  1  0  0  0  0
 11 13  4  0  0  0  0
 13  1  4  0  0  0  0
 13 14  1  0  0  0  0
  1 15  1  0  0  0  0
M  END
> <CAS>
456-22-4

> <NAME>
P-FLUOROBENZOIC ACID

> <preferred_name>
Benzoic acid, 4-fluoro-

> <iupac>
4-Fluorobenzoic acid

> <SMILES>
OC(=O)c1ccc(F)cc1

> <Canonical_QSARr>
OC(=O)c1ccc(F)cc1

> <InChI_Code_QSARr>
InChI=1S/C7H5FO2/c8-6-3-1-5(2-4-6)7(9)10/h1-4H,(H,9,10)

> <InChI Key_QSARr>
BBYDXOIZLAWGSL-UHFFFAOYSA-N

> <Salt_Solvent>
?

> <WS Temperature>
25

> <WS Reference>
YALKOWSKY,SH & DANNENFELSER,RM (1992)

> <dsstox_substance_id>
DTXSID9060023

> <LogMolar>
-2.0673

$$$$
461-57-4
  -INDIGO-01081615412D

 12 11  0  0  0  0  0  0  0  0999 V2000
    2.7713    0.0000    0.0000 F   0  0  0  0  0  0  0  0  0  0  0  0
    1.3856   -0.8000    0.0000 C   0  0  0  0  0  0  0  0  0  0  0  0
    0.0000    0.0000    0.0000 C   0  0  0  0  0  0  0  0  0  0  0  0
   -1.3856    0.8000    0.0000 O   0  0  0  0  0  0  0  0  0  0  0  0
   -2.7713    0.0000    0.0000 C   0  0  0  0  0  0  0  0  0  0  0  0
   -4.1569   -0.8000    0.0000 H   0  0  0  0  0  0  0  0  0  0  0  0
   -4.1569    0.8000    0.0000 H   0  0  0  0  0  0  0  0  0  0  0  0
   -2.7713   -1.6000    0.0000 H   0  0  0  0  0  0  0  0  0  0  0  0
    0.8000    1.3856    0.0000 H   0  0  0  0  0  0  0  0  0  0  0  0
   -0.8000   -1.3856    0.0000 H   0  0  0  0  0  0  0  0  0  0  0  0
    2.7713   -1.6000    0.0000 F   0  0  0  0  0  0  0  0  0  0  0  0
    1.3856   -2.4000    0.0000 H   0  0  0  0  0  0  0  0  0  0  0  0
  1  2  1  0  0  0  0
  2  3  1  0  0  0  0
  3  4  1  0  0  0  0
  4  5  1  0  0  0  0
  5  6  1  0  0  0  0
  5  7  1  0  0  0  0
  5  8  1  0  0  0  0
  3  9  1  0  0  0  0
  3 10  1  0  0  0  0
  2 11  1  0  0  0  0
  2 12  1  0  0  0  0
M  END
> <CAS>
461-57-4

> <NAME>
Ethane, 1,1-difluoro-2-methoxy-

> <preferred_name>
PUBCHEM_17962868

> <iupac>
C3H6F2O

> <SMILES>
COCC(F)F

> <Canonical_QSARr>
COCC(F)F

> <InChI_Code_QSARr>
InChI=1S/C3H6F2O/c1-6-2-3(4)5/h3H,2H2,1H3

> <InChI Key_QSARr>
CRGZRXUKXVTRNO-UHFFFAOYSA-N

> <Salt_Solvent>
?

> <WS Temperature>


> <WS Reference>
BEILSTEIN

> <dsstox_substance_id>
DTXSID30591779

> <LogMolar>
-0.2836

$$$$
462-88-4
  -INDIGO-01081615412D

 17 16  0  0  0  0  0  0  0  0999 V2000
    4.0000    1.3856    0.0000 O   0  0  0  0  0  0  0  0  0  0  0  0
    3.2001    0.0000    0.0000 C   0  0  0  0  0  0  0  0  0  0  0  0
    1.6000    0.0000    0.0000 C   0  0  0  0  0  0  0  0  0  0  0  0
    0.0000    0.0000    0.0000 C   0  0  0  0  0  0  0  0  0  0  0  0
   -1.5999    0.0000    0.0000 N   0  0  0  0  0  0  0  0  0  0  0  0
   -2.4001   -1.3856    0.0000 C   0  0  0  0  0  0  0  0  0  0  0  0
   -4.0000   -1.3856    0.0000 N   0  0  0  0  0  0  0  0  0  0  0  0
   -4.8000   -2.7713    0.0000 H   0  0  0  0  0  0  0  0  0  0  0  0
   -4.8000    0.0000    0.0000 H   0  0  0  0  0  0  0  0  0  0  0  0
   -1.5999   -2.7713    0.0000 O   0  0  0  0  0  0  0  0  0  0  0  0
   -2.4001    1.3856    0.0000 H   0  0  0  0  0  0  0  0  0  0  0  0
    0.0000    1.6000    0.0000 H   0  0  0  0  0  0  0  0  0  0  0  0
    0.0000   -1.6000    0.0000 H   0  0  0  0  0  0  0  0  0  0  0  0
    1.6000   -1.6000    0.0000 H   0  0  0  0  0  0  0  0  0  0  0  0
    1.6000    1.6000    0.0000 H   0  0  0  0  0  0  0  0  0  0  0  0
    4.0000   -1.3856    0.0000 O   0  0  0  0  0  0  0  0  0  0  0  0
    5.6000    1.3856    0.0000 H   0  0  0  0  0  0  0  0  0  0  0  0
  1  2  1  0  0  0  0
  2  3  1  0  0  0  0
  3  4  1  0  0  0  0
  4  5  1  0  0  0  0
  5  6  1  0  0  0  0
  6  7  1  0  0  0  0
  7  8  1  0  0  0  0
  7  9  1  0  0  0  0
  6 10  2  0  0  0  0
  5 11  1  0  0  0  0
  4 12  1  0  0  0  0
  4 13  1  0  0  0  0
  3 14  1  0  0  0  0
  3 15  1  0  0  0  0
  2 16  2  0  0  0  0
  1 17  1  0  0  0  0
M  END
> <CAS>
462-88-4

> <NAME>
.beta.-Alanine, N-(aminocarbonyl)-

> <preferred_name>
N-Carbamoyl-beta-alanine

> <iupac>
3-(carbamoylamino)propanoic acid

> <SMILES>
NC(=O)NCCC(O)=O

> <Canonical_QSARr>
NC(=O)NCCC(O)=O

> <InChI_Code_QSARr>
InChI=1S/C4H8N2O3/c5-4(9)6-2-1-3(7)8/h1-2H2,(H,7,8)(H3,5,6,9)

> <InChI Key_QSARr>
JSJWCHRYRHKBBW-UHFFFAOYSA-N

> <Salt_Solvent>
?

> <WS Temperature>
25

> <WS Reference>
BEILSTEIN

> <dsstox_substance_id>
DTXSID60196771

> <LogMolar>
-0.8014

$$$$
464-43-7, 507-70-0
  -INDIGO-01081615412D

 29 30  0  0  0  0  0  0  0  0999 V2000
   -0.6865   -1.2788    0.0000 C   0  0  0  0  0  0  0  0  0  0  0  0
   -0.0000   -0.0000    0.0000 C   0  0  0  0  0  0  0  0  0  0  0  0
   -1.5524    0.3874    0.0000 C   0  0  0  0  0  0  0  0  0  0  0  0
   -3.1048    0.7747    0.0000 H   0  0  0  0  0  0  0  0  0  0  0  0
   -2.9906   -0.3137    0.0000 H   0  0  0  0  0  0  0  0  0  0  0  0
   -1.9876    1.2991    0.0000 H   0  0  0  0  0  0  0  0  0  0  0  0
    3.0923   -0.2630    0.0000 C   0  0  0  0  0  0  0  0  0  0  0  0
    4.0746   -1.5260    0.0000 C   0  0  0  0  0  0  0  0  0  0  0  0
    5.6595   -1.3069    0.0000 H   0  0  0  0  0  0  0  0  0  0  0  0
    5.0568   -2.7890    0.0000 H   0  0  0  0  0  0  0  0  0  0  0  0
    4.6772   -0.0439    0.0000 H   0  0  0  0  0  0  0  0  0  0  0  0
    3.8557    1.1432    0.0000 C   0  0  0  0  0  0  0  0  0  0  0  0
    4.6189    2.5493    0.0000 H   0  0  0  0  0  0  0  0  0  0  0  0
    5.4552    1.1853    0.0000 H   0  0  0  0  0  0  0  0  0  0  0  0
    3.0196    2.5073    0.0000 H   0  0  0  0  0  0  0  0  0  0  0  0
    1.6175   -0.6372    0.0000 C   0  0  0  0  0  0  0  0  0  0  0  0
    0.8198    0.8734    0.0000 C   0  0  0  0  0  0  0  0  0  0  0  0
   -0.5526    1.5015    0.0000 C   0  0  0  0  0  0  0  0  0  0  0  0
   -0.2842    3.0788    0.0000 O   0  0  0  0  0  0  0  0  0  0  0  0
   -1.5159    4.1000    0.0000 H   0  0  0  0  0  0  0  0  0  0  0  0
   -1.4405    1.9834    0.0000 H   0  0  0  0  0  0  0  0  0  0  0  0
    2.3937    1.1611    0.0000 H   0  0  0  0  0  0  0  0  0  0  0  0
    1.0180    2.4611    0.0000 H   0  0  0  0  0  0  0  0  0  0  0  0
    2.5698   -1.9230    0.0000 H   0  0  0  0  0  0  0  0  0  0  0  0
    0.7841   -2.0140    0.0000 C   0  0  0  0  0  0  0  0  0  0  0  0
    0.0303   -3.4254    0.0000 H   0  0  0  0  0  0  0  0  0  0  0  0
    2.1746   -2.8055    0.0000 H   0  0  0  0  0  0  0  0  0  0  0  0
   -2.2851   -1.3438    0.0000 H   0  0  0  0  0  0  0  0  0  0  0  0
   -1.4159   -2.7029    0.0000 H   0  0  0  0  0  0  0  0  0  0  0  0
  1  2  1  0  0  0  0
  2  3  1  0  0  0  0
  3  4  1  0  0  0  0
  3  5  1  0  0  0  0
  3  6  1  0  0  0  0
  2  7  1  0  0  0  0
  7  8  1  0  0  0  0
  8  9  1  0  0  0  0
  8 10  1  0  0  0  0
  8 11  1  0  0  0  0
  7 12  1  0  0  0  0
 12 13  1  0  0  0  0
 12 14  1  0  0  0  0
 12 15  1  0  0  0  0
  7 16  1  0  0  0  0
 16 17  1  0  0  0  0
 17 18  1  0  0  0  0
 18  2  1  0  0  0  0
 18 19  1  0  0  0  0
 19 20  1  0  0  0  0
 18 21  1  0  0  0  0
 17 22  1  0  0  0  0
 17 23  1  0  0  0  0
 16 24  1  0  0  0  0
 16 25  1  0  0  0  0
 25  1  1  0  0  0  0
 25 26  1  0  0  0  0
 25 27  1  0  0  0  0
  1 28  1  0  0  0  0
  1 29  1  0  0  0  0
M  END
> <CAS>
464-43-7, 507-70-0

> <NAME>
d-Borneol, BORNEOL

> <preferred_name>
(+)-Borneol

> <iupac>
(1R,4R,6S)-1,7,7-trimethylbicyclo[2.2.1]heptan-6-ol

> <SMILES>
CC1(C)[C@@H]2C[C@@H](O)[C@@]1(C)CC2 |&1:3,5,7|

> <Canonical_QSARr>
CC1(C)C2CC(O)C1(C)CC2

> <InChI_Code_QSARr>
InChI=1S/C10H18O/c1-9(2)7-4-5-10(9,3)8(11)6-7/h7-8,11H,4-6H2,1-3H3

> <InChI Key_QSARr>
DTGKSKDOIYIVQL-UHFFFAOYSA-N

> <Salt_Solvent>
?

> <WS Temperature>
25

> <WS Reference>
YALKOWSKY,SH & DANNENFELSER,RM (1992)

> <dsstox_substance_id>
DTXSID2058700

> <LogMolar>
-2.3196

$$$$
467-69-6
  -INDIGO-01081615412D

 27 29  0  0  0  0  0  0  0  0999 V2000
   -0.0001   -0.0000    0.0000 C   0  0  0  0  0  0  0  0  0  0  0  0
   -0.6508    1.4616    0.0000 O   0  0  0  0  0  0  0  0  0  0  0  0
    0.2897    2.7561    0.0000 H   0  0  0  0  0  0  0  0  0  0  0  0
    1.3856    0.8000    0.0000 C   0  0  0  0  0  0  0  0  0  0  0  0
    2.7713   -0.0000    0.0000 O   0  0  0  0  0  0  0  0  0  0  0  0
    1.3856    2.4001    0.0000 O   0  0  0  0  0  0  0  0  0  0  0  0
    2.7713    3.2000    0.0000 H   0  0  0  0  0  0  0  0  0  0  0  0
    0.9405   -1.2944    0.0000 C   0  0  0  0  0  0  0  0  0  0  0  0
    2.5317   -1.4617    0.0000 C   0  0  0  0  0  0  0  0  0  0  0  0
    3.1825   -2.9234    0.0000 C   0  0  0  0  0  0  0  0  0  0  0  0
    2.2421   -4.2178    0.0000 C   0  0  0  0  0  0  0  0  0  0  0  0
    0.6508   -4.0506    0.0000 C   0  0  0  0  0  0  0  0  0  0  0  0
   -0.2897   -5.3449    0.0000 H   0  0  0  0  0  0  0  0  0  0  0  0
   -0.0001   -2.5889    0.0000 C   0  0  0  0  0  0  0  0  0  0  0  0
   -1.5218   -2.0945    0.0000 C   0  0  0  0  0  0  0  0  0  0  0  0
   -2.9073   -2.8944    0.0000 C   0  0  0  0  0  0  0  0  0  0  0  0
   -4.2929   -2.0945    0.0000 C   0  0  0  0  0  0  0  0  0  0  0  0
   -4.2929   -0.4945    0.0000 C   0  0  0  0  0  0  0  0  0  0  0  0
   -2.9073    0.3056    0.0000 C   0  0  0  0  0  0  0  0  0  0  0  0
   -2.9073    1.9055    0.0000 H   0  0  0  0  0  0  0  0  0  0  0  0
   -1.5218   -0.4945    0.0000 C   0  0  0  0  0  0  0  0  0  0  0  0
   -5.6786    0.3056    0.0000 H   0  0  0  0  0  0  0  0  0  0  0  0
   -5.6786   -2.8944    0.0000 H   0  0  0  0  0  0  0  0  0  0  0  0
   -2.9073   -4.4944    0.0000 H   0  0  0  0  0  0  0  0  0  0  0  0
    2.8928   -5.6794    0.0000 H   0  0  0  0  0  0  0  0  0  0  0  0
    4.7737   -3.0906    0.0000 H   0  0  0  0  0  0  0  0  0  0  0  0
    3.8582   -0.5669    0.0000 H   0  0  0  0  0  0  0  0  0  0  0  0
  1  2  1  0  0  0  0
  2  3  1  0  0  0  0
  1  4  1  0  0  0  0
  4  5  2  0  0  0  0
  4  6  1  0  0  0  0
  6  7  1  0  0  0  0
  1  8  1  0  0  0  0
  8  9  4  0  0  0  0
  9 10  4  0  0  0  0
 10 11  4  0  0  0  0
 11 12  4  0  0  0  0
 12 13  1  0  0  0  0
 12 14  4  0  0  0  0
 14  8  4  0  0  0  0
 14 15  1  0  0  0  0
 15 16  4  0  0  0  0
 16 17  4  0  0  0  0
 17 18  4  0  0  0  0
 18 19  4  0  0  0  0
 19 20  1  0  0  0  0
 19 21  4  0  0  0  0
 21  1  1  0  0  0  0
 21 15  4  0  0  0  0
 18 22  1  0  0  0  0
 17 23  1  0  0  0  0
 16 24  1  0  0  0  0
 11 25  1  0  0  0  0
 10 26  1  0  0  0  0
  9 27  1  0  0  0  0
M  END
> <CAS>
467-69-6

> <NAME>
FLURENOL

> <preferred_name>
Flurenol

> <iupac>
9-Hydroxyfluorene-9-carboxylic acid

> <SMILES>
OC(=O)C1(O)c2ccccc2-c2ccccc12

> <Canonical_QSARr>
OC(=O)C1(O)c2ccccc2-c2ccccc12

> <InChI_Code_QSARr>
InChI=1S/C14H10O3/c15-13(16)14(17)11-7-3-1-5-9(11)10-6-2-4-8-12(10)14/h1-8,17H,(H,15,16)

> <InChI Key_QSARr>
GXAMYUGOODKVRM-UHFFFAOYSA-N

> <Salt_Solvent>
?

> <WS Temperature>
25

> <WS Reference>
BEILSTEIN

> <dsstox_substance_id>
DTXSID0075029

> <LogMolar>
-1.9657

$$$$
471-03-4
  -INDIGO-01081615412D

 17 16  0  0  0  0  0  0  0  0999 V2000
    4.0000    1.3856    0.0000 Cl  0  0  0  0  0  0  0  0  0  0  0  0
    3.2001    0.0000    0.0000 C   0  0  0  0  0  0  0  0  0  0  0  0
    1.6000    0.0000    0.0000 C   0  0  0  0  0  0  0  0  0  0  0  0
    0.0001    0.0000    0.0000 S   0  0  0  0  0  0  0  0  0  0  0  0
   -1.6000    0.0000    0.0000 C   0  0  0  0  0  0  0  0  0  0  0  0
   -3.1999   -0.0000    0.0000 C   0  0  0  0  0  0  0  0  0  0  0  0
   -4.8000   -0.0000    0.0000 Cl  0  0  0  0  0  0  0  0  0  0  0  0
   -4.0000   -1.3856    0.0000 H   0  0  0  0  0  0  0  0  0  0  0  0
   -4.0000    1.3856    0.0000 H   0  0  0  0  0  0  0  0  0  0  0  0
   -1.6000   -1.6000    0.0000 H   0  0  0  0  0  0  0  0  0  0  0  0
   -1.6000    1.6000    0.0000 H   0  0  0  0  0  0  0  0  0  0  0  0
    0.0001    1.6000    0.0000 O   0  0  0  0  0  0  0  0  0  0  0  0
    0.0001   -1.6000    0.0000 O   0  0  0  0  0  0  0  0  0  0  0  0
    1.6000   -1.6000    0.0000 H   0  0  0  0  0  0  0  0  0  0  0  0
    1.6000    1.6000    0.0000 H   0  0  0  0  0  0  0  0  0  0  0  0
    4.8000    0.0000    0.0000 H   0  0  0  0  0  0  0  0  0  0  0  0
    4.0000   -1.3856    0.0000 H   0  0  0  0  0  0  0  0  0  0  0  0
  1  2  1  0  0  0  0
  2  3  1  0  0  0  0
  3  4  1  0  0  0  0
  4  5  1  0  0  0  0
  5  6  1  0  0  0  0
  6  7  1  0  0  0  0
  6  8  1  0  0  0  0
  6  9  1  0  0  0  0
  5 10  1  0  0  0  0
  5 11  1  0  0  0  0
  4 12  2  0  0  0  0
  4 13  2  0  0  0  0
  3 14  1  0  0  0  0
  3 15  1  0  0  0  0
  2 16  1  0  0  0  0
  2 17  1  0  0  0  0
M  END
> <CAS>
471-03-4

> <NAME>
1,1'-SULFONYLBIS(2-CHLOROETHANE)

> <preferred_name>
Sulfone, bis(2-chloroethyl)

> <iupac>
1-chloro-2-(2-chloroethylsulfonyl)ethane

> <SMILES>
O=S(=O)(CCCl)CCCl

> <Canonical_QSARr>
O=S(=O)(CCCl)CCCl

> <InChI_Code_QSARr>
InChI=1S/C4H8Cl2O2S/c5-1-3-9(7,8)4-2-6/h1-4H2

> <InChI Key_QSARr>
LUYAMNYBNTVQJG-UHFFFAOYSA-N

> <Salt_Solvent>
?

> <WS Temperature>
20

> <WS Reference>
BEILSTEIN

> <dsstox_substance_id>
DTXSID50197035

> <LogMolar>
-1.5031

$$$$
473-34-7
  -INDIGO-01081615412D

 20 20  0  0  0  0  0  0  0  0999 V2000
    1.6001    1.6000    0.0000 O   0  0  0  0  0  0  0  0  0  0  0  0
    1.6001   -0.0000    0.0000 S   0  0  0  0  0  0  0  0  0  0  0  0
    3.2000   -0.0000    0.0000 N   0  0  0  0  0  0  0  0  0  0  0  0
    4.0000   -1.3856    0.0000 Cl  0  0  0  0  0  0  0  0  0  0  0  0
    4.0000    1.3856    0.0000 Cl  0  0  0  0  0  0  0  0  0  0  0  0
   -0.0000   -0.0000    0.0000 C   0  0  0  0  0  0  0  0  0  0  0  0
   -0.8000    1.3856    0.0000 C   0  0  0  0  0  0  0  0  0  0  0  0
   -0.0000    2.7713    0.0000 H   0  0  0  0  0  0  0  0  0  0  0  0
   -2.4000    1.3856    0.0000 C   0  0  0  0  0  0  0  0  0  0  0  0
   -3.1999    2.7713    0.0000 H   0  0  0  0  0  0  0  0  0  0  0  0
   -3.1999   -0.0000    0.0000 C   0  0  0  0  0  0  0  0  0  0  0  0
   -4.8000   -0.0000    0.0000 C   0  0  0  0  0  0  0  0  0  0  0  0
   -6.4000   -0.0000    0.0000 H   0  0  0  0  0  0  0  0  0  0  0  0
   -5.6000    1.3856    0.0000 H   0  0  0  0  0  0  0  0  0  0  0  0
   -5.6000   -1.3856    0.0000 H   0  0  0  0  0  0  0  0  0  0  0  0
   -2.4000   -1.3856    0.0000 C   0  0  0  0  0  0  0  0  0  0  0  0
   -3.1999   -2.7713    0.0000 H   0  0  0  0  0  0  0  0  0  0  0  0
   -0.8000   -1.3856    0.0000 C   0  0  0  0  0  0  0  0  0  0  0  0
   -0.0000   -2.7713    0.0000 H   0  0  0  0  0  0  0  0  0  0  0  0
    1.6001   -1.6000    0.0000 O   0  0  0  0  0  0  0  0  0  0  0  0
  1  2  2  0  0  0  0
  2  3  1  0  0  0  0
  3  4  1  0  0  0  0
  3  5  1  0  0  0  0
  2  6  1  0  0  0  0
  6  7  4  0  0  0  0
  7  8  1  0  0  0  0
  7  9  4  0  0  0  0
  9 10  1  0  0  0  0
  9 11  4  0  0  0  0
 11 12  1  0  0  0  0
 12 13  1  0  0  0  0
 12 14  1  0  0  0  0
 12 15  1  0  0  0  0
 11 16  4  0  0  0  0
 16 17  1  0  0  0  0
 16 18  4  0  0  0  0
 18  6  4  0  0  0  0
 18 19  1  0  0  0  0
  2 20  2  0  0  0  0
M  END
> <CAS>
473-34-7

> <NAME>
Benzenesulfonamide, N,N-dichloro-4-methyl-

> <preferred_name>
Benzenesulfonamide, N,N-dichloro-4-methyl-

> <iupac>
N,N-dichloro-4-methylbenzenesulfonamide

> <SMILES>
Cc1ccc(cc1)S(=O)(=O)N(Cl)Cl

> <Canonical_QSARr>
Cc1ccc(cc1)S(=O)(=O)N(Cl)Cl

> <InChI_Code_QSARr>
InChI=1S/C7H7Cl2NO2S/c1-6-2-4-7(5-3-6)13(11,12)10(8)9/h2-5H,1H3

> <InChI Key_QSARr>
ARGDYOIRHYLIMT-UHFFFAOYSA-N

> <Salt_Solvent>
?

> <WS Temperature>
25

> <WS Reference>
BEILSTEIN

> <dsstox_substance_id>
DTXSID6060054

> <LogMolar>
-3.466

$$$$
475-25-2
  -INDIGO-01081615412D

 34 37  0  0  0  0  0  0  0  0999 V2000
    1.5217    2.0944    0.0000 C   0  0  0  0  0  0  0  0  0  0  0  0
    2.1724    3.5561    0.0000 C   0  0  0  0  0  0  0  0  0  0  0  0
    1.2319    4.8506    0.0000 H   0  0  0  0  0  0  0  0  0  0  0  0
    3.7637    3.7234    0.0000 C   0  0  0  0  0  0  0  0  0  0  0  0
    4.4144    5.1850    0.0000 O   0  0  0  0  0  0  0  0  0  0  0  0
    6.0056    5.3523    0.0000 H   0  0  0  0  0  0  0  0  0  0  0  0
    4.7042    2.4289    0.0000 C   0  0  0  0  0  0  0  0  0  0  0  0
    6.2954    2.5962    0.0000 O   0  0  0  0  0  0  0  0  0  0  0  0
    4.0534    0.9672    0.0000 C   0  0  0  0  0  0  0  0  0  0  0  0
    4.9939   -0.3272    0.0000 H   0  0  0  0  0  0  0  0  0  0  0  0
    2.4622    0.8000    0.0000 C   0  0  0  0  0  0  0  0  0  0  0  0
    1.5217   -0.4945    0.0000 C   0  0  0  0  0  0  0  0  0  0  0  0
    1.5703   -1.2856    0.0000 H   0  0  0  0  0  0  0  0  0  0  0  0
    2.9073   -1.2944    0.0000 H   0  0  0  0  0  0  0  0  0  0  0  0
    0.0001   -0.0000    0.0000 C   0  0  0  0  0  0  0  0  0  0  0  0
    0.1672   -1.5913    0.0000 O   0  0  0  0  0  0  0  0  0  0  0  0
    0.8710   -1.9561    0.0000 H   0  0  0  0  0  0  0  0  0  0  0  0
   -1.3857   -0.8000    0.0000 C   0  0  0  0  0  0  0  0  0  0  0  0
   -2.7714   -0.0000    0.0000 O   0  0  0  0  0  0  0  0  0  0  0  0
   -2.7714    1.6000    0.0000 C   0  0  0  0  0  0  0  0  0  0  0  0
   -4.1570    2.4001    0.0000 C   0  0  0  0  0  0  0  0  0  0  0  0
   -5.5426    1.6000    0.0000 O   0  0  0  0  0  0  0  0  0  0  0  0
   -6.9282    2.4001    0.0000 H   0  0  0  0  0  0  0  0  0  0  0  0
   -4.1570    4.0001    0.0000 C   0  0  0  0  0  0  0  0  0  0  0  0
   -5.5426    4.8000    0.0000 O   0  0  0  0  0  0  0  0  0  0  0  0
   -5.5426    6.4000    0.0000 H   0  0  0  0  0  0  0  0  0  0  0  0
   -2.7714    4.8000    0.0000 C   0  0  0  0  0  0  0  0  0  0  0  0
   -2.7714    6.4000    0.0000 H   0  0  0  0  0  0  0  0  0  0  0  0
   -1.3857    4.0001    0.0000 C   0  0  0  0  0  0  0  0  0  0  0  0
    0.0001    4.8000    0.0000 H   0  0  0  0  0  0  0  0  0  0  0  0
   -1.3857    2.4001    0.0000 C   0  0  0  0  0  0  0  0  0  0  0  0
    0.0001    1.6000    0.0000 C   0  0  0  0  0  0  0  0  0  0  0  0
   -2.4140   -2.0257    0.0000 H   0  0  0  0  0  0  0  0  0  0  0  0
   -0.5857   -2.1856    0.0000 H   0  0  0  0  0  0  0  0  0  0  0  0
  1  2  1  0  0  0  0
  2  3  1  0  0  0  0
  2  4  2  0  0  0  0
  4  5  1  0  0  0  0
  5  6  1  0  0  0  0
  4  7  1  0  0  0  0
  7  8  2  0  0  0  0
  7  9  1  0  0  0  0
  9 10  1  0  0  0  0
  9 11  2  0  0  0  0
 11  1  1  0  0  0  0
 11 12  1  0  0  0  0
 12 13  1  0  0  0  0
 12 14  1  0  0  0  0
 12 15  1  0  0  0  0
 15 16  1  0  0  0  0
 16 17  1  0  0  0  0
 15 18  1  0  0  0  0
 18 19  1  0  0  0  0
 19 20  1  0  0  0  0
 20 21  4  0  0  0  0
 21 22  1  0  0  0  0
 22 23  1  0  0  0  0
 21 24  4  0  0  0  0
 24 25  1  0  0  0  0
 25 26  1  0  0  0  0
 24 27  4  0  0  0  0
 27 28  1  0  0  0  0
 27 29  4  0  0  0  0
 29 30  1  0  0  0  0
 29 31  4  0  0  0  0
 31 20  4  0  0  0  0
 31 32  1  0  0  0  0
 32  1  2  0  0  0  0
 32 15  1  0  0  0  0
 18 33  1  0  0  0  0
 18 34  1  0  0  0  0
M  END
> <CAS>
475-25-2

> <NAME>
Hematein

> <preferred_name>


> <iupac>


> <SMILES>
OC1=CC2=C3c4ccc(O)c(O)c4OCC3(O)CC2=CC1=O

> <Canonical_QSARr>
OC1=CC2=C3c4ccc(O)c(O)c4OCC3(O)CC2=CC1=O

> <InChI_Code_QSARr>
InChI=1S/C16H12O6/c17-10-2-1-8-13-9-4-12(19)11(18)3-7(9)5-16(13,21)6-22-15(8)14(10)20/h1-4,17,19-21H,5-6H2

> <InChI Key_QSARr>
HLUCICHZHWJHLL-UHFFFAOYSA-N

> <Salt_Solvent>
?

> <WS Temperature>
20

> <WS Reference>
YALKOWSKY,SH & DANNENFELSER,RM (1992)

> <dsstox_substance_id>


> <LogMolar>
-2.6994

$$$$
479-23-2
  -INDIGO-01081615412D

 34 38  0  0  0  0  0  0  0  0999 V2000
    0.8000    1.3857    0.0000 C   0  0  0  0  0  0  0  0  0  0  0  0
    2.4000    1.3857    0.0000 C   0  0  0  0  0  0  0  0  0  0  0  0
    2.6374   -0.1966    0.0000 C   0  0  0  0  0  0  0  0  0  0  0  0
    1.2516   -0.9966    0.0000 C   0  0  0  0  0  0  0  0  0  0  0  0
    0.1069   -2.1144    0.0000 H   0  0  0  0  0  0  0  0  0  0  0  0
    2.2180   -2.2718    0.0000 H   0  0  0  0  0  0  0  0  0  0  0  0
    0.0000    0.0000    0.0000 C   0  0  0  0  0  0  0  0  0  0  0  0
   -1.6000    0.0000    0.0000 C   0  0  0  0  0  0  0  0  0  0  0  0
   -2.4000   -1.3856    0.0000 C   0  0  0  0  0  0  0  0  0  0  0  0
   -1.6000   -2.7713    0.0000 H   0  0  0  0  0  0  0  0  0  0  0  0
   -4.0000   -1.3856    0.0000 C   0  0  0  0  0  0  0  0  0  0  0  0
   -4.8000   -2.7713    0.0000 H   0  0  0  0  0  0  0  0  0  0  0  0
   -4.8000    0.0000    0.0000 C   0  0  0  0  0  0  0  0  0  0  0  0
   -6.4000    0.0000    0.0000 C   0  0  0  0  0  0  0  0  0  0  0  0
   -7.2000    1.3856    0.0000 C   0  0  0  0  0  0  0  0  0  0  0  0
   -6.4000    2.7713    0.0000 C   0  0  0  0  0  0  0  0  0  0  0  0
   -4.8000    2.7713    0.0000 C   0  0  0  0  0  0  0  0  0  0  0  0
   -4.0000    4.1569    0.0000 H   0  0  0  0  0  0  0  0  0  0  0  0
   -4.0000    1.3856    0.0000 C   0  0  0  0  0  0  0  0  0  0  0  0
   -2.4000    1.3857    0.0000 C   0  0  0  0  0  0  0  0  0  0  0  0
   -1.6000    2.7713    0.0000 C   0  0  0  0  0  0  0  0  0  0  0  0
    0.0000    2.7713    0.0000 C   0  0  0  0  0  0  0  0  0  0  0  0
    0.8000    4.1570    0.0000 C   0  0  0  0  0  0  0  0  0  0  0  0
    2.4000    4.1569    0.0000 C   0  0  0  0  0  0  0  0  0  0  0  0
    3.2000    2.7713    0.0000 C   0  0  0  0  0  0  0  0  0  0  0  0
    4.8000    2.7713    0.0000 H   0  0  0  0  0  0  0  0  0  0  0  0
    3.2000    5.5426    0.0000 H   0  0  0  0  0  0  0  0  0  0  0  0
    0.0000    5.5426    0.0000 H   0  0  0  0  0  0  0  0  0  0  0  0
   -2.4000    4.1570    0.0000 H   0  0  0  0  0  0  0  0  0  0  0  0
   -7.2000    4.1569    0.0000 H   0  0  0  0  0  0  0  0  0  0  0  0
   -8.8000    1.3856    0.0000 H   0  0  0  0  0  0  0  0  0  0  0  0
   -7.2000   -1.3857    0.0000 H   0  0  0  0  0  0  0  0  0  0  0  0
    3.2585   -1.6711    0.0000 H   0  0  0  0  0  0  0  0  0  0  0  0
    4.1776    0.2360    0.0000 H   0  0  0  0  0  0  0  0  0  0  0  0
  1  2  4  0  0  0  0
  2  3  1  0  0  0  0
  3  4  1  0  0  0  0
  4  5  1  0  0  0  0
  4  6  1  0  0  0  0
  4  7  1  0  0  0  0
  7  1  4  0  0  0  0
  7  8  4  0  0  0  0
  8  9  4  0  0  0  0
  9 10  1  0  0  0  0
  9 11  4  0  0  0  0
 11 12  1  0  0  0  0
 11 13  4  0  0  0  0
 13 14  4  0  0  0  0
 14 15  4  0  0  0  0
 15 16  4  0  0  0  0
 16 17  4  0  0  0  0
 17 18  1  0  0  0  0
 17 19  4  0  0  0  0
 19 13  4  0  0  0  0
 19 20  4  0  0  0  0
 20  8  4  0  0  0  0
 20 21  4  0  0  0  0
 21 22  4  0  0  0  0
 22  1  4  0  0  0  0
 22 23  4  0  0  0  0
 23 24  4  0  0  0  0
 24 25  4  0  0  0  0
 25  2  4  0  0  0  0
 25 26  1  0  0  0  0
 24 27  1  0  0  0  0
 23 28  1  0  0  0  0
 21 29  1  0  0  0  0
 16 30  1  0  0  0  0
 15 31  1  0  0  0  0
 14 32  1  0  0  0  0
  3 33  1  0  0  0  0
  3 34  1  0  0  0  0
M  END
> <CAS>
479-23-2

> <NAME>
CHOLANTHRENE

> <preferred_name>
Benz[j]aceanthrylene, 1,2-dihydro-

> <iupac>


> <SMILES>
C1Cc2c3c(cc4c5ccccc5ccc24)cccc31

> <Canonical_QSARr>
C1Cc2c3c(cc4c5ccccc5ccc24)cccc31

> <InChI_Code_QSARr>
InChI=1S/C20H14/c1-2-7-16-13(4-1)8-10-17-18-11-9-14-5-3-6-15(20(14)18)12-19(16)17/h1-8,10,12H,9,11H2

> <InChI Key_QSARr>
KVFJBIQWENJTDM-UHFFFAOYSA-N

> <Salt_Solvent>
?

> <WS Temperature>
27

> <WS Reference>
YALKOWSKY,SH & DANNENFELSER,RM (1992)

> <dsstox_substance_id>
DTXSID0073908

> <LogMolar>
-7.8613

$$$$
479-98-1
  -INDIGO-01081615412D

 46 48  0  0  0  0  0  0  0  0999 V2000
    3.1036    0.5473    0.0000 O   0  0  0  0  0  0  0  0  0  0  0  0
    4.6071   -0.0001    0.0000 C   0  0  0  0  0  0  0  0  0  0  0  0
    5.8328   -1.0285    0.0000 C   0  0  0  0  0  0  0  0  0  0  0  0
    6.6327   -2.4140    0.0000 O   0  0  0  0  0  0  0  0  0  0  0  0
    5.8328   -3.7997    0.0000 H   0  0  0  0  0  0  0  0  0  0  0  0
    4.6071   -2.0570    0.0000 H   0  0  0  0  0  0  0  0  0  0  0  0
    7.3363   -0.4812    0.0000 C   0  0  0  0  0  0  0  0  0  0  0  0
    7.6141   -2.0570    0.0000 O   0  0  0  0  0  0  0  0  0  0  0  0
    9.1176   -2.6042    0.0000 H   0  0  0  0  0  0  0  0  0  0  0  0
    8.9363   -0.4812    0.0000 H   0  0  0  0  0  0  0  0  0  0  0  0
    7.6141    1.0945    0.0000 C   0  0  0  0  0  0  0  0  0  0  0  0
    8.4140    2.4802    0.0000 O   0  0  0  0  0  0  0  0  0  0  0  0
   10.0140    2.4802    0.0000 H   0  0  0  0  0  0  0  0  0  0  0  0
    9.1176    0.5473    0.0000 H   0  0  0  0  0  0  0  0  0  0  0  0
    6.3884    2.1230    0.0000 C   0  0  0  0  0  0  0  0  0  0  0  0
    5.5883    3.5085    0.0000 C   0  0  0  0  0  0  0  0  0  0  0  0
    4.7884    4.8942    0.0000 O   0  0  0  0  0  0  0  0  0  0  0  0
    5.5883    6.2798    0.0000 H   0  0  0  0  0  0  0  0  0  0  0  0
    6.9741    4.3086    0.0000 H   0  0  0  0  0  0  0  0  0  0  0  0
    4.2028    2.7086    0.0000 H   0  0  0  0  0  0  0  0  0  0  0  0
    7.6141    3.1514    0.0000 H   0  0  0  0  0  0  0  0  0  0  0  0
    4.8849    1.5756    0.0000 O   0  0  0  0  0  0  0  0  0  0  0  0
    3.8070   -1.3856    0.0000 H   0  0  0  0  0  0  0  0  0  0  0  0
    1.6001   -0.0001    0.0000 C   0  0  0  0  0  0  0  0  0  0  0  0
    0.0001   -0.0001    0.0000 C   0  0  0  0  0  0  0  0  0  0  0  0
   -1.0707    1.1891    0.0000 C   0  0  0  0  0  0  0  0  0  0  0  0
   -0.7380    2.7541    0.0000 C   0  0  0  0  0  0  0  0  0  0  0  0
   -0.4054    4.3191    0.0000 O   0  0  0  0  0  0  0  0  0  0  0  0
   -1.5943    5.3898    0.0000 H   0  0  0  0  0  0  0  0  0  0  0  0
   -2.3029    3.0868    0.0000 H   0  0  0  0  0  0  0  0  0  0  0  0
    0.8270    2.4214    0.0000 H   0  0  0  0  0  0  0  0  0  0  0  0
   -2.5322    0.5382    0.0000 C   0  0  0  0  0  0  0  0  0  0  0  0
   -2.3651   -1.0530    0.0000 C   0  0  0  0  0  0  0  0  0  0  0  0
   -3.9651   -1.0530    0.0000 O   0  0  0  0  0  0  0  0  0  0  0  0
   -4.7650   -2.4386    0.0000 H   0  0  0  0  0  0  0  0  0  0  0  0
   -2.8060   -2.5910    0.0000 H   0  0  0  0  0  0  0  0  0  0  0  0
   -0.8000   -1.3856    0.0000 C   0  0  0  0  0  0  0  0  0  0  0  0
   -1.7404   -2.6800    0.0000 H   0  0  0  0  0  0  0  0  0  0  0  0
    0.0001   -2.7712    0.0000 C   0  0  0  0  0  0  0  0  0  0  0  0
   -0.8000   -4.1569    0.0000 H   0  0  0  0  0  0  0  0  0  0  0  0
    1.6001   -2.7712    0.0000 C   0  0  0  0  0  0  0  0  0  0  0  0
    2.4000   -4.1569    0.0000 H   0  0  0  0  0  0  0  0  0  0  0  0
    2.4000   -1.3856    0.0000 O   0  0  0  0  0  0  0  0  0  0  0  0
   -3.9180    1.3383    0.0000 H   0  0  0  0  0  0  0  0  0  0  0  0
    0.6507    1.4617    0.0000 H   0  0  0  0  0  0  0  0  0  0  0  0
    2.1472    1.5035    0.0000 H   0  0  0  0  0  0  0  0  0  0  0  0
  1  2  1  0  0  0  0
  2  3  1  0  0  0  0
  3  4  1  0  0  0  0
  4  5  1  0  0  0  0
  3  6  1  0  0  0  0
  3  7  1  0  0  0  0
  7  8  1  0  0  0  0
  8  9  1  0  0  0  0
  7 10  1  0  0  0  0
  7 11  1  0  0  0  0
 11 12  1  0  0  0  0
 12 13  1  0  0  0  0
 11 14  1  0  0  0  0
 11 15  1  0  0  0  0
 15 16  1  0  0  0  0
 16 17  1  0  0  0  0
 17 18  1  0  0  0  0
 16 19  1  0  0  0  0
 16 20  1  0  0  0  0
 15 21  1  0  0  0  0
 15 22  1  0  0  0  0
 22  2  1  0  0  0  0
  2 23  1  0  0  0  0
  1 24  1  0  0  0  0
 24 25  1  0  0  0  0
 25 26  1  0  0  0  0
 26 27  1  0  0  0  0
 27 28  1  0  0  0  0
 28 29  1  0  0  0  0
 27 30  1  0  0  0  0
 27 31  1  0  0  0  0
 26 32  2  0  0  0  0
 32 33  1  0  0  0  0
 33 34  1  0  0  0  0
 34 35  1  0  0  0  0
 33 36  1  0  0  0  0
 33 37  1  0  0  0  0
 37 25  1  0  0  0  0
 37 38  1  0  0  0  0
 37 39  1  0  0  0  0
 39 40  1  0  0  0  0
 39 41  2  0  0  0  0
 41 42  1  0  0  0  0
 41 43  1  0  0  0  0
 43 24  1  0  0  0  0
 32 44  1  0  0  0  0
 25 45  1  0  0  0  0
 24 46  1  0  0  0  0
M  END
> <CAS>
479-98-1

> <NAME>
Aucubin

> <preferred_name>
NSC648500

> <iupac>
C15H22O9

> <SMILES>
O[C@@H]1C=C(CO)[C@H]2[C@H](OC3OC(CO)C(O)C(O)C3O)OC=C[C@@H]12

> <Canonical_QSARr>
OC1C=C(CO)C2C(OC3OC(CO)C(O)C(O)C3O)OC=CC12

> <InChI_Code_QSARr>
InChI=1S/C15H22O9/c16-4-6-3-8(18)7-1-2-22-14(10(6)7)24-15-13(21)12(20)11(19)9(5-17)23-15/h1-3,7-21H,4-5H2

> <InChI Key_QSARr>
RJWJHRPNHPHBRN-UHFFFAOYSA-N

> <Salt_Solvent>
?

> <WS Temperature>
20

> <WS Reference>
BEILSTEIN

> <dsstox_substance_id>
DTXSID90327354

> <LogMolar>
0.0119

$$$$
480-68-2
  -INDIGO-01081615412D

 15 15  0  0  0  0  0  0  0  0999 V2000
    0.0000   -0.0000    0.0000 C   0  0  0  0  0  0  0  0  0  0  0  0
    1.2256   -1.0285    0.0000 N   0  0  0  0  0  0  0  0  0  0  0  0
    2.7292   -0.4813    0.0000 O   0  0  0  0  0  0  0  0  0  0  0  0
    0.9478   -2.6042    0.0000 O   0  0  0  0  0  0  0  0  0  0  0  0
   -0.7999    1.3856    0.0000 C   0  0  0  0  0  0  0  0  0  0  0  0
    0.0000    2.7713    0.0000 O   0  0  0  0  0  0  0  0  0  0  0  0
   -2.4000    1.3856    0.0000 N   0  0  0  0  0  0  0  0  0  0  0  0
   -3.2000    2.7713    0.0000 H   0  0  0  0  0  0  0  0  0  0  0  0
   -3.2000   -0.0000    0.0000 C   0  0  0  0  0  0  0  0  0  0  0  0
   -4.8000   -0.0000    0.0000 O   0  0  0  0  0  0  0  0  0  0  0  0
   -2.4000   -1.3856    0.0000 N   0  0  0  0  0  0  0  0  0  0  0  0
   -3.2000   -2.7713    0.0000 H   0  0  0  0  0  0  0  0  0  0  0  0
   -0.7999   -1.3856    0.0000 C   0  0  0  0  0  0  0  0  0  0  0  0
    0.0000   -2.7713    0.0000 O   0  0  0  0  0  0  0  0  0  0  0  0
    1.2256    1.0285    0.0000 H   0  0  0  0  0  0  0  0  0  0  0  0
  1  2  1  0  0  0  0
  2  3  1  0  0  0  0
  2  4  2  0  0  0  0
  1  5  1  0  0  0  0
  5  6  2  0  0  0  0
  5  7  1  0  0  0  0
  7  8  1  0  0  0  0
  7  9  1  0  0  0  0
  9 10  2  0  0  0  0
  9 11  1  0  0  0  0
 11 12  1  0  0  0  0
 11 13  1  0  0  0  0
 13  1  1  0  0  0  0
 13 14  2  0  0  0  0
  1 15  1  0  0  0  0
M  CHG  2   2   1   3  -1
M  END
> <CAS>
480-68-2

> <NAME>
2,4,6(1H,3H,5H)-Pyrimidinetrione, 5-nitro-

> <preferred_name>
2,4,6(1H,3H,5H)-Pyrimidinetrione, 5-nitro-

> <iupac>
5-nitro-1,3-diazinane-2,4,6-trione

> <SMILES>
[O-][N+](=O)C1C(=O)NC(=O)NC1=O

> <Canonical_QSARr>
[O-][N+](=O)C1C(=O)NC(=O)NC1=O

> <InChI_Code_QSARr>
InChI=1S/C4H3N3O5/c8-2-1(7(11)12)3(9)6-4(10)5-2/h1H,(H2,5,6,8,9,10)

> <InChI Key_QSARr>
ABICJYZKIYUWEE-UHFFFAOYSA-N

> <Salt_Solvent>
?

> <WS Temperature>
25

> <WS Reference>
YALKOWSKY,SH & DANNENFELSER,RM (1992)

> <dsstox_substance_id>
DTXSID0060062

> <LogMolar>
-2.284

$$$$
482-05-3
  -INDIGO-01081615412D

 28 29  0  0  0  0  0  0  0  0999 V2000
    0.4813    2.7292    0.0000 C   0  0  0  0  0  0  0  0  0  0  0  0
   -0.5472    1.5035    0.0000 C   0  0  0  0  0  0  0  0  0  0  0  0
   -2.1230    1.7814    0.0000 H   0  0  0  0  0  0  0  0  0  0  0  0
   -0.0000    0.0001    0.0000 C   0  0  0  0  0  0  0  0  0  0  0  0
   -1.3857   -0.8000    0.0000 C   0  0  0  0  0  0  0  0  0  0  0  0
   -2.7712    0.0001    0.0000 C   0  0  0  0  0  0  0  0  0  0  0  0
   -3.5713    1.3857    0.0000 C   0  0  0  0  0  0  0  0  0  0  0  0
   -5.1713    1.3857    0.0000 O   0  0  0  0  0  0  0  0  0  0  0  0
   -5.9713    2.7713    0.0000 H   0  0  0  0  0  0  0  0  0  0  0  0
   -2.7712    2.7713    0.0000 O   0  0  0  0  0  0  0  0  0  0  0  0
   -4.1569   -0.8000    0.0000 C   0  0  0  0  0  0  0  0  0  0  0  0
   -5.5425    0.0001    0.0000 H   0  0  0  0  0  0  0  0  0  0  0  0
   -4.1569   -2.4000    0.0000 C   0  0  0  0  0  0  0  0  0  0  0  0
   -5.5425   -3.1999    0.0000 H   0  0  0  0  0  0  0  0  0  0  0  0
   -2.7712   -3.1999    0.0000 C   0  0  0  0  0  0  0  0  0  0  0  0
   -2.7712   -4.8000    0.0000 H   0  0  0  0  0  0  0  0  0  0  0  0
   -1.3857   -2.4000    0.0000 C   0  0  0  0  0  0  0  0  0  0  0  0
   -0.0000   -3.1999    0.0000 H   0  0  0  0  0  0  0  0  0  0  0  0
    1.5757   -0.2778    0.0000 C   0  0  0  0  0  0  0  0  0  0  0  0
    2.1229   -1.7814    0.0000 C   0  0  0  0  0  0  0  0  0  0  0  0
    3.6986   -2.0591    0.0000 O   0  0  0  0  0  0  0  0  0  0  0  0
    4.2459   -3.5627    0.0000 H   0  0  0  0  0  0  0  0  0  0  0  0
    1.0944   -3.0070    0.0000 O   0  0  0  0  0  0  0  0  0  0  0  0
    2.6042    0.9478    0.0000 C   0  0  0  0  0  0  0  0  0  0  0  0
    4.1799    0.6701    0.0000 H   0  0  0  0  0  0  0  0  0  0  0  0
    2.0570    2.4514    0.0000 C   0  0  0  0  0  0  0  0  0  0  0  0
    3.0853    3.6770    0.0000 H   0  0  0  0  0  0  0  0  0  0  0  0
   -0.0660    4.2327    0.0000 H   0  0  0  0  0  0  0  0  0  0  0  0
  1  2  4  0  0  0  0
  2  3  1  0  0  0  0
  2  4  4  0  0  0  0
  4  5  1  0  0  0  0
  5  6  4  0  0  0  0
  6  7  1  0  0  0  0
  7  8  1  0  0  0  0
  8  9  1  0  0  0  0
  7 10  2  0  0  0  0
  6 11  4  0  0  0  0
 11 12  1  0  0  0  0
 11 13  4  0  0  0  0
 13 14  1  0  0  0  0
 13 15  4  0  0  0  0
 15 16  1  0  0  0  0
 15 17  4  0  0  0  0
 17  5  4  0  0  0  0
 17 18  1  0  0  0  0
  4 19  4  0  0  0  0
 19 20  1  0  0  0  0
 20 21  1  0  0  0  0
 21 22  1  0  0  0  0
 20 23  2  0  0  0  0
 19 24  4  0  0  0  0
 24 25  1  0  0  0  0
 24 26  4  0  0  0  0
 26  1  4  0  0  0  0
 26 27  1  0  0  0  0
  1 28  1  0  0  0  0
M  END
> <CAS>
482-05-3

> <NAME>
1,1'-BIPHENYL -2,2'-DICARBOXYLIC ACID

> <preferred_name>
[1,1'-Biphenyl]-2,2'-dicarboxylic acid

> <iupac>
2-(2-carboxyphenyl)benzoic acid

> <SMILES>
OC(=O)c1ccccc1-c1ccccc1C(O)=O

> <Canonical_QSARr>
OC(=O)c1ccccc1-c1ccccc1C(O)=O

> <InChI_Code_QSARr>
InChI=1S/C14H10O4/c15-13(16)11-7-3-1-5-9(11)10-6-2-4-8-12(10)14(17)18/h1-8H,(H,15,16)(H,17,18)

> <InChI Key_QSARr>
GWZCCUDJHOGOSO-UHFFFAOYSA-N

> <Salt_Solvent>
?

> <WS Temperature>
25

> <WS Reference>
CHEMICALS INSPECTION AND TESTING INSTITU (1992)

> <dsstox_substance_id>
DTXSID0060064

> <LogMolar>
-2.2839

$$$$
485-43-8
  -INDIGO-01081615412D

 28 29  0  0  0  0  0  0  0  0999 V2000
    0.0001    0.0000    0.0000 C   0  0  0  0  0  0  0  0  0  0  0  0
   -1.0706    1.1891    0.0000 C   0  0  0  0  0  0  0  0  0  0  0  0
    0.0409    2.3400    0.0000 H   0  0  0  0  0  0  0  0  0  0  0  0
   -1.8706    2.5747    0.0000 H   0  0  0  0  0  0  0  0  0  0  0  0
   -2.5324    0.5383    0.0000 C   0  0  0  0  0  0  0  0  0  0  0  0
   -3.0268    2.0599    0.0000 H   0  0  0  0  0  0  0  0  0  0  0  0
   -4.0974    0.2056    0.0000 H   0  0  0  0  0  0  0  0  0  0  0  0
   -2.3650   -1.0530    0.0000 C   0  0  0  0  0  0  0  0  0  0  0  0
   -3.8685   -1.6002    0.0000 C   0  0  0  0  0  0  0  0  0  0  0  0
   -5.3721   -2.1475    0.0000 H   0  0  0  0  0  0  0  0  0  0  0  0
   -5.0942   -0.5718    0.0000 H   0  0  0  0  0  0  0  0  0  0  0  0
   -4.1464   -3.1759    0.0000 H   0  0  0  0  0  0  0  0  0  0  0  0
   -2.8060   -2.5910    0.0000 H   0  0  0  0  0  0  0  0  0  0  0  0
   -0.8000   -1.3857    0.0000 C   0  0  0  0  0  0  0  0  0  0  0  0
   -1.7404   -2.6801    0.0000 H   0  0  0  0  0  0  0  0  0  0  0  0
    0.0001   -2.7713    0.0000 C   0  0  0  0  0  0  0  0  0  0  0  0
   -1.2257   -3.7998    0.0000 H   0  0  0  0  0  0  0  0  0  0  0  0
    0.2778   -4.3470    0.0000 H   0  0  0  0  0  0  0  0  0  0  0  0
    1.6000   -2.7713    0.0000 O   0  0  0  0  0  0  0  0  0  0  0  0
    2.4000   -1.3857    0.0000 C   0  0  0  0  0  0  0  0  0  0  0  0
    4.0001   -1.3857    0.0000 O   0  0  0  0  0  0  0  0  0  0  0  0
    1.6000    0.0000    0.0000 C   0  0  0  0  0  0  0  0  0  0  0  0
    3.1035    0.5472    0.0000 C   0  0  0  0  0  0  0  0  0  0  0  0
    4.6070    1.0944    0.0000 H   0  0  0  0  0  0  0  0  0  0  0  0
    3.3814    2.1229    0.0000 H   0  0  0  0  0  0  0  0  0  0  0  0
    4.3291   -0.4813    0.0000 H   0  0  0  0  0  0  0  0  0  0  0  0
    1.8779    1.5757    0.0000 H   0  0  0  0  0  0  0  0  0  0  0  0
    0.6507    1.4617    0.0000 H   0  0  0  0  0  0  0  0  0  0  0  0
  1  2  1  0  0  0  0
  2  3  1  0  0  0  0
  2  4  1  0  0  0  0
  2  5  1  0  0  0  0
  5  6  1  0  0  0  0
  5  7  1  0  0  0  0
  5  8  1  0  0  0  0
  8  9  1  0  0  0  0
  9 10  1  0  0  0  0
  9 11  1  0  0  0  0
  9 12  1  0  0  0  0
  8 13  1  0  0  0  0
  8 14  1  0  0  0  0
 14  1  1  0  0  0  0
 14 15  1  0  0  0  0
 14 16  1  0  0  0  0
 16 17  1  0  0  0  0
 16 18  1  0  0  0  0
 16 19  1  0  0  0  0
 19 20  1  0  0  0  0
 20 21  2  0  0  0  0
 20 22  1  0  0  0  0
 22  1  1  0  0  0  0
 22 23  1  0  0  0  0
 23 24  1  0  0  0  0
 23 25  1  0  0  0  0
 23 26  1  0  0  0  0
 22 27  1  0  0  0  0
  1 28  1  0  0  0  0
M  END
> <CAS>
485-43-8

> <NAME>
Iridomyrmecin

> <preferred_name>


> <iupac>


> <SMILES>
C[C@H]1CC[C@H]2[C@@H]1COC(=O)[C@H]2C

> <Canonical_QSARr>
CC1CCC2C1COC(=O)C2C

> <InChI_Code_QSARr>
InChI=1S/C10H16O2/c1-6-3-4-8-7(2)10(11)12-5-9(6)8/h6-9H,3-5H2,1-2H3

> <InChI Key_QSARr>
LYEFRAMOOLOUKA-UHFFFAOYSA-N

> <Salt_Solvent>
?

> <WS Temperature>
25

> <WS Reference>
MERCK INDEX (1996)

> <dsstox_substance_id>


> <LogMolar>
-1.9249

$$$$
490-11-9
  -INDIGO-01081615412D

 17 17  0  0  0  0  0  0  0  0999 V2000
   -2.3999    1.3856    0.0000 O   0  0  0  0  0  0  0  0  0  0  0  0
   -0.7999    1.3856    0.0000 C   0  0  0  0  0  0  0  0  0  0  0  0
   -0.0000    0.0000    0.0000 C   0  0  0  0  0  0  0  0  0  0  0  0
   -0.7999   -1.3856    0.0000 C   0  0  0  0  0  0  0  0  0  0  0  0
   -2.3999   -1.3856    0.0000 H   0  0  0  0  0  0  0  0  0  0  0  0
   -0.0000   -2.7713    0.0000 C   0  0  0  0  0  0  0  0  0  0  0  0
   -0.7999   -4.1569    0.0000 H   0  0  0  0  0  0  0  0  0  0  0  0
    1.6000   -2.7713    0.0000 N   0  0  0  1  0  0  0  0  0  0  0  0
    2.4001   -1.3856    0.0000 C   0  0  0  0  0  0  0  0  0  0  0  0
    4.0001   -1.3856    0.0000 H   0  0  0  0  0  0  0  0  0  0  0  0
    1.6000    0.0000    0.0000 C   0  0  0  0  0  0  0  0  0  0  0  0
    2.4001    1.3856    0.0000 C   0  0  0  0  0  0  0  0  0  0  0  0
    1.6000    2.7713    0.0000 O   0  0  0  0  0  0  0  0  0  0  0  0
    4.0001    1.3856    0.0000 O   0  0  0  0  0  0  0  0  0  0  0  0
    4.8000    2.7713    0.0000 H   0  0  0  0  0  0  0  0  0  0  0  0
   -0.0000    2.7713    0.0000 O   0  0  0  0  0  0  0  0  0  0  0  0
   -3.2000    2.7713    0.0000 H   0  0  0  0  0  0  0  0  0  0  0  0
  1  2  1  0  0  0  0
  2  3  1  0  0  0  0
  3  4  4  0  0  0  0
  4  5  1  0  0  0  0
  4  6  4  0  0  0  0
  6  7  1  0  0  0  0
  6  8  4  0  0  0  0
  8  9  4  0  0  0  0
  9 10  1  0  0  0  0
  9 11  4  0  0  0  0
 11  3  4  0  0  0  0
 11 12  1  0  0  0  0
 12 13  2  0  0  0  0
 12 14  1  0  0  0  0
 14 15  1  0  0  0  0
  2 16  2  0  0  0  0
  1 17  1  0  0  0  0
M  END
> <CAS>
490-11-9

> <NAME>
CINCHOMERONIC ACID

> <preferred_name>
Cinchomeronic acid

> <iupac>
Pyridine-3,4-dicarboxylic acid

> <SMILES>
OC(=O)c1cc[n]cc1C(O)=O

> <Canonical_QSARr>
OC(=O)c1cc[n]cc1C(O)=O

> <InChI_Code_QSARr>
InChI=1S/C7H5NO4/c9-6(10)4-1-2-8-3-5(4)7(11)12/h1-3H,(H,9,10)(H,11,12)

> <InChI Key_QSARr>
MUYSADWCWFFZKR-UHFFFAOYSA-N

> <Salt_Solvent>
?

> <WS Temperature>
25

> <WS Reference>
YALKOWSKY,SH & DANNENFELSER,RM (1992)

> <dsstox_substance_id>
DTXSID70197653

> <LogMolar>
-1.8538

$$$$
491-59-8
  -INDIGO-01081615412D

 30 32  0  0  0  0  0  0  0  0999 V2000
    2.7713    1.6000    0.0000 C   0  0  0  0  0  0  0  0  0  0  0  0
    1.3856    2.4000    0.0000 C   0  0  0  0  0  0  0  0  0  0  0  0
    1.3856    4.0000    0.0000 H   0  0  0  0  0  0  0  0  0  0  0  0
    0.0001    1.6000    0.0000 C   0  0  0  0  0  0  0  0  0  0  0  0
   -1.3856    2.4000    0.0000 C   0  0  0  0  0  0  0  0  0  0  0  0
   -2.7713    1.6000    0.0000 C   0  0  0  0  0  0  0  0  0  0  0  0
   -2.7713    0.0000    0.0000 C   0  0  0  0  0  0  0  0  0  0  0  0
   -1.3856   -0.8000    0.0000 C   0  0  0  0  0  0  0  0  0  0  0  0
   -1.3856   -2.4000    0.0000 O   0  0  0  0  0  0  0  0  0  0  0  0
   -2.7713   -3.2000    0.0000 H   0  0  0  0  0  0  0  0  0  0  0  0
    0.0001    0.0000    0.0000 C   0  0  0  0  0  0  0  0  0  0  0  0
    1.3856   -0.8000    0.0000 C   0  0  0  0  0  0  0  0  0  0  0  0
    1.3856   -2.4000    0.0000 O   0  0  0  0  0  0  0  0  0  0  0  0
    2.7713   -3.2000    0.0000 H   0  0  0  0  0  0  0  0  0  0  0  0
    2.7713    0.0000    0.0000 C   0  0  0  0  0  0  0  0  0  0  0  0
    4.1570   -0.8000    0.0000 C   0  0  0  0  0  0  0  0  0  0  0  0
    4.1570   -2.4000    0.0000 O   0  0  0  0  0  0  0  0  0  0  0  0
    5.5425   -3.2000    0.0000 H   0  0  0  0  0  0  0  0  0  0  0  0
    5.5425    0.0000    0.0000 C   0  0  0  0  0  0  0  0  0  0  0  0
    6.9282   -0.8000    0.0000 H   0  0  0  0  0  0  0  0  0  0  0  0
    5.5425    1.6000    0.0000 C   0  0  0  0  0  0  0  0  0  0  0  0
    6.9282    2.4000    0.0000 H   0  0  0  0  0  0  0  0  0  0  0  0
    4.1570    2.4000    0.0000 C   0  0  0  0  0  0  0  0  0  0  0  0
    4.1570    4.0000    0.0000 H   0  0  0  0  0  0  0  0  0  0  0  0
   -4.1569   -0.8000    0.0000 H   0  0  0  0  0  0  0  0  0  0  0  0
   -4.1569    2.4000    0.0000 C   0  0  0  0  0  0  0  0  0  0  0  0
   -5.5426    3.2000    0.0000 H   0  0  0  0  0  0  0  0  0  0  0  0
   -5.5426    1.6000    0.0000 H   0  0  0  0  0  0  0  0  0  0  0  0
   -4.1569    4.0000    0.0000 H   0  0  0  0  0  0  0  0  0  0  0  0
   -1.3856    4.0000    0.0000 H   0  0  0  0  0  0  0  0  0  0  0  0
  1  2  4  0  0  0  0
  2  3  1  0  0  0  0
  2  4  4  0  0  0  0
  4  5  4  0  0  0  0
  5  6  4  0  0  0  0
  6  7  4  0  0  0  0
  7  8  4  0  0  0  0
  8  9  1  0  0  0  0
  9 10  1  0  0  0  0
  8 11  4  0  0  0  0
 11  4  4  0  0  0  0
 11 12  4  0  0  0  0
 12 13  1  0  0  0  0
 13 14  1  0  0  0  0
 12 15  4  0  0  0  0
 15  1  4  0  0  0  0
 15 16  4  0  0  0  0
 16 17  1  0  0  0  0
 17 18  1  0  0  0  0
 16 19  4  0  0  0  0
 19 20  1  0  0  0  0
 19 21  4  0  0  0  0
 21 22  1  0  0  0  0
 21 23  4  0  0  0  0
 23  1  4  0  0  0  0
 23 24  1  0  0  0  0
  7 25  1  0  0  0  0
  6 26  1  0  0  0  0
 26 27  1  0  0  0  0
 26 28  1  0  0  0  0
 26 29  1  0  0  0  0
  5 30  1  0  0  0  0
M  END
> <CAS>
491-59-8

> <NAME>
CHRYSAROBIN

> <preferred_name>
Chrysarobin

> <iupac>
3-methylanthracene-1,8,9-triol

> <SMILES>
Cc1cc2cc3cccc(O)c3c(O)c2c(O)c1

> <Canonical_QSARr>
Cc1cc2cc3cccc(O)c3c(O)c2c(O)c1

> <InChI_Code_QSARr>
InChI=1S/C15H12O3/c1-8-5-10-7-9-3-2-4-11(16)13(9)15(18)14(10)12(17)6-8/h2-7,16-18H,1H3

> <InChI Key_QSARr>
JBGKVNQFVAJOGC-UHFFFAOYSA-N

> <Salt_Solvent>
?

> <WS Temperature>
25

> <WS Reference>
SEIDELL,A (1941)

> <dsstox_substance_id>
DTXSID1048671

> <LogMolar>
-3.0585

$$$$
495-08-9
  -INDIGO-01081615412D

 18 18  0  0  0  0  0  0  0  0999 V2000
   -0.0000    2.7713    0.0000 O   0  0  0  0  0  0  0  0  0  0  0  0
   -0.8000    1.3856    0.0000 C   0  0  0  0  0  0  0  0  0  0  0  0
   -2.4000    1.3856    0.0000 C   0  0  0  0  0  0  0  0  0  0  0  0
   -3.2001    2.7713    0.0000 H   0  0  0  0  0  0  0  0  0  0  0  0
   -3.2001    0.0000    0.0000 C   0  0  0  0  0  0  0  0  0  0  0  0
   -4.8000    0.0000    0.0000 H   0  0  0  0  0  0  0  0  0  0  0  0
   -2.4000   -1.3856    0.0000 C   0  0  0  0  0  0  0  0  0  0  0  0
   -3.2001   -2.7713    0.0000 O   0  0  0  0  0  0  0  0  0  0  0  0
   -4.8000   -2.7713    0.0000 H   0  0  0  0  0  0  0  0  0  0  0  0
   -0.8000   -1.3856    0.0000 C   0  0  0  0  0  0  0  0  0  0  0  0
   -0.0000   -2.7713    0.0000 H   0  0  0  0  0  0  0  0  0  0  0  0
   -0.0000    0.0000    0.0000 C   0  0  0  0  0  0  0  0  0  0  0  0
    1.6000    0.0000    0.0000 C   0  0  0  0  0  0  0  0  0  0  0  0
    3.2000    0.0000    0.0000 O   0  0  0  0  0  0  0  0  0  0  0  0
    4.0000   -1.3856    0.0000 H   0  0  0  0  0  0  0  0  0  0  0  0
    1.6000   -1.6000    0.0000 H   0  0  0  0  0  0  0  0  0  0  0  0
    1.6000    1.6000    0.0000 H   0  0  0  0  0  0  0  0  0  0  0  0
   -0.8000    4.1569    0.0000 H   0  0  0  0  0  0  0  0  0  0  0  0
  1  2  1  0  0  0  0
  2  3  4  0  0  0  0
  3  4  1  0  0  0  0
  3  5  4  0  0  0  0
  5  6  1  0  0  0  0
  5  7  4  0  0  0  0
  7  8  1  0  0  0  0
  8  9  1  0  0  0  0
  7 10  4  0  0  0  0
 10 11  1  0  0  0  0
 10 12  4  0  0  0  0
 12  2  4  0  0  0  0
 12 13  1  0  0  0  0
 13 14  1  0  0  0  0
 14 15  1  0  0  0  0
 13 16  1  0  0  0  0
 13 17  1  0  0  0  0
  1 18  1  0  0  0  0
M  END
> <CAS>
495-08-9

> <NAME>
Gentisyl Alcohol

> <preferred_name>
2,5-Dihydroxybenzyl alcohol

> <iupac>
2-(hydroxymethyl)benzene-1,4-diol

> <SMILES>
OCc1cc(O)ccc1O

> <Canonical_QSARr>
OCc1cc(O)ccc1O

> <InChI_Code_QSARr>
InChI=1S/C7H8O3/c8-4-5-3-6(9)1-2-7(5)10/h1-3,8-10H,4H2

> <InChI Key_QSARr>
PUZSUVGRVHEUQO-UHFFFAOYSA-N

> <Salt_Solvent>
?

> <WS Temperature>


> <WS Reference>
MERCK INDEX (1996); freely soluble

> <dsstox_substance_id>
DTXSID60197804

> <LogMolar>
0.8534

$$$$
496-11-7
  -INDIGO-01081615412D

 19 20  0  0  0  0  0  0  0  0999 V2000
    2.4621    0.8000    0.0000 C   0  0  0  0  0  0  0  0  0  0  0  0
    0.9404    1.2944    0.0000 C   0  0  0  0  0  0  0  0  0  0  0  0
    1.5912    2.7561    0.0000 H   0  0  0  0  0  0  0  0  0  0  0  0
   -0.4452    2.0944    0.0000 H   0  0  0  0  0  0  0  0  0  0  0  0
    0.0000   -0.0000    0.0000 C   0  0  0  0  0  0  0  0  0  0  0  0
   -1.1890    1.0706    0.0000 H   0  0  0  0  0  0  0  0  0  0  0  0
   -1.1890   -1.0706    0.0000 H   0  0  0  0  0  0  0  0  0  0  0  0
    0.9404   -1.2944    0.0000 C   0  0  0  0  0  0  0  0  0  0  0  0
   -0.4452   -2.0944    0.0000 H   0  0  0  0  0  0  0  0  0  0  0  0
    1.5912   -2.7561    0.0000 H   0  0  0  0  0  0  0  0  0  0  0  0
    2.4621   -0.8000    0.0000 C   0  0  0  0  0  0  0  0  0  0  0  0
    3.8478   -1.6000    0.0000 C   0  0  0  0  0  0  0  0  0  0  0  0
    3.8478   -3.2000    0.0000 H   0  0  0  0  0  0  0  0  0  0  0  0
    5.2334   -0.8000    0.0000 C   0  0  0  0  0  0  0  0  0  0  0  0
    6.6191   -1.6000    0.0000 H   0  0  0  0  0  0  0  0  0  0  0  0
    5.2334    0.8000    0.0000 C   0  0  0  0  0  0  0  0  0  0  0  0
    6.6191    1.6000    0.0000 H   0  0  0  0  0  0  0  0  0  0  0  0
    3.8478    1.6000    0.0000 C   0  0  0  0  0  0  0  0  0  0  0  0
    3.8478    3.2000    0.0000 H   0  0  0  0  0  0  0  0  0  0  0  0
  1  2  1  0  0  0  0
  2  3  1  0  0  0  0
  2  4  1  0  0  0  0
  2  5  1  0  0  0  0
  5  6  1  0  0  0  0
  5  7  1  0  0  0  0
  5  8  1  0  0  0  0
  8  9  1  0  0  0  0
  8 10  1  0  0  0  0
  8 11  1  0  0  0  0
 11  1  4  0  0  0  0
 11 12  4  0  0  0  0
 12 13  1  0  0  0  0
 12 14  4  0  0  0  0
 14 15  1  0  0  0  0
 14 16  4  0  0  0  0
 16 17  1  0  0  0  0
 16 18  4  0  0  0  0
 18  1  4  0  0  0  0
 18 19  1  0  0  0  0
M  END
> <CAS>
496-11-7

> <NAME>
INDANE

> <preferred_name>
Indan

> <iupac>
indane

> <SMILES>
C1CCc2ccccc21

> <Canonical_QSARr>
C1CCc2ccccc21

> <InChI_Code_QSARr>
InChI=1S/C9H10/c1-2-5-9-7-3-6-8(9)4-1/h1-2,4-5H,3,6-7H2

> <InChI Key_QSARr>
PQNFLJBBNBOBRQ-UHFFFAOYSA-N

> <Salt_Solvent>
?

> <WS Temperature>
25

> <WS Reference>
YALKOWSKY,SH & DANNENFELSER,RM (1992)

> <dsstox_substance_id>
DTXSID4052132

> <LogMolar>
-3.0351

$$$$
497-38-1
  -INDIGO-01081615412D

 18 19  0  0  0  0  0  0  0  0999 V2000
   -2.7533   -2.8892    0.0000 O   0  0  0  0  0  0  0  0  0  0  0  0
   -1.6745   -1.7075    0.0000 C   0  0  0  0  0  0  0  0  0  0  0  0
   -0.0333   -1.6090    0.0000 C   0  0  0  0  0  0  0  0  0  0  0  0
    0.0196   -3.2082    0.0000 H   0  0  0  0  0  0  0  0  0  0  0  0
    1.5667   -1.5991    0.0000 H   0  0  0  0  0  0  0  0  0  0  0  0
    0.0000   -0.0000    0.0000 C   0  0  0  0  0  0  0  0  0  0  0  0
   -1.4462    0.9094    0.0000 C   0  0  0  0  0  0  0  0  0  0  0  0
   -2.9487    0.7672    0.0000 C   0  0  0  0  0  0  0  0  0  0  0  0
   -3.5049    2.2674    0.0000 H   0  0  0  0  0  0  0  0  0  0  0  0
   -4.2550   -0.1568    0.0000 H   0  0  0  0  0  0  0  0  0  0  0  0
   -1.7194   -0.2569    0.0000 C   0  0  0  0  0  0  0  0  0  0  0  0
    1.0902    1.0616    0.0000 C   0  0  0  0  0  0  0  0  0  0  0  0
    2.5723    0.4589    0.0000 H   0  0  0  0  0  0  0  0  0  0  0  0
    1.0481    2.6610    0.0000 H   0  0  0  0  0  0  0  0  0  0  0  0
   -3.1576   -0.9579    0.0000 H   0  0  0  0  0  0  0  0  0  0  0  0
   -0.2271    1.9455    0.0000 H   0  0  0  0  0  0  0  0  0  0  0  0
   -2.0684    2.3835    0.0000 H   0  0  0  0  0  0  0  0  0  0  0  0
    1.4676   -0.6373    0.0000 H   0  0  0  0  0  0  0  0  0  0  0  0
  1  2  2  0  0  0  0
  2  3  1  0  0  0  0
  3  4  1  0  0  0  0
  3  5  1  0  0  0  0
  3  6  1  0  0  0  0
  6  7  1  0  0  0  0
  7  8  1  0  0  0  0
  8  9  1  0  0  0  0
  8 10  1  0  0  0  0
  8 11  1  0  0  0  0
 11  2  1  0  0  0  0
 11 12  1  0  0  0  0
 12  6  1  0  0  0  0
 12 13  1  0  0  0  0
 12 14  1  0  0  0  0
 11 15  1  0  0  0  0
  7 16  1  0  0  0  0
  7 17  1  0  0  0  0
  6 18  1  0  0  0  0
M  END
> <CAS>
497-38-1

> <NAME>
NORCAMPHOR

> <preferred_name>
PUBCHEM_54006846, PUBCHEM_54006847

> <iupac>
C7H10O

> <SMILES>
O=C1CC2C[C@@H]1CC2

> <Canonical_QSARr>
O=C1CC2CC1CC2

> <InChI_Code_QSARr>
InChI=1S/C7H10O/c8-7-4-5-1-2-6(7)3-5/h5-6H,1-4H2

> <InChI Key_QSARr>
KPMKEVXVVHNIEY-UHFFFAOYSA-N

> <Salt_Solvent>
?

> <WS Temperature>
20

> <WS Reference>
SEIDELL,A (1941)

> <dsstox_substance_id>
DTXSID60708318, DTXSID20708319

> <LogMolar>
-1.7565

$$$$
499-75-2
  -INDIGO-01081615412D

 25 25  0  0  0  0  0  0  0  0999 V2000
    2.4000    1.3857    0.0000 C   0  0  0  0  0  0  0  0  0  0  0  0
    1.6000   -0.0000    0.0000 C   0  0  0  0  0  0  0  0  0  0  0  0
    0.0001   -0.0000    0.0000 C   0  0  0  0  0  0  0  0  0  0  0  0
   -1.5035    0.5472    0.0000 C   0  0  0  0  0  0  0  0  0  0  0  0
   -3.0070    1.0945    0.0000 H   0  0  0  0  0  0  0  0  0  0  0  0
   -1.7813    2.1229    0.0000 H   0  0  0  0  0  0  0  0  0  0  0  0
   -2.7292   -0.4812    0.0000 H   0  0  0  0  0  0  0  0  0  0  0  0
    0.0001   -1.6000    0.0000 C   0  0  0  0  0  0  0  0  0  0  0  0
    0.0001   -3.2000    0.0000 H   0  0  0  0  0  0  0  0  0  0  0  0
   -1.3856   -2.4000    0.0000 H   0  0  0  0  0  0  0  0  0  0  0  0
   -1.3856   -0.8000    0.0000 H   0  0  0  0  0  0  0  0  0  0  0  0
    0.0001    1.6000    0.0000 H   0  0  0  0  0  0  0  0  0  0  0  0
    2.4000   -1.3857    0.0000 C   0  0  0  0  0  0  0  0  0  0  0  0
    1.6000   -2.7713    0.0000 H   0  0  0  0  0  0  0  0  0  0  0  0
    4.0000   -1.3857    0.0000 C   0  0  0  0  0  0  0  0  0  0  0  0
    4.7999   -2.7713    0.0000 H   0  0  0  0  0  0  0  0  0  0  0  0
    4.7999   -0.0000    0.0000 C   0  0  0  0  0  0  0  0  0  0  0  0
    6.4000   -0.0000    0.0000 C   0  0  0  0  0  0  0  0  0  0  0  0
    8.0000   -0.0000    0.0000 H   0  0  0  0  0  0  0  0  0  0  0  0
    7.2000   -1.3857    0.0000 H   0  0  0  0  0  0  0  0  0  0  0  0
    7.2000    1.3857    0.0000 H   0  0  0  0  0  0  0  0  0  0  0  0
    4.0000    1.3857    0.0000 C   0  0  0  0  0  0  0  0  0  0  0  0
    4.7999    2.7713    0.0000 O   0  0  0  0  0  0  0  0  0  0  0  0
    4.0000    4.1569    0.0000 H   0  0  0  0  0  0  0  0  0  0  0  0
    1.6000    2.7713    0.0000 H   0  0  0  0  0  0  0  0  0  0  0  0
  1  2  4  0  0  0  0
  2  3  1  0  0  0  0
  3  4  1  0  0  0  0
  4  5  1  0  0  0  0
  4  6  1  0  0  0  0
  4  7  1  0  0  0  0
  3  8  1  0  0  0  0
  8  9  1  0  0  0  0
  8 10  1  0  0  0  0
  8 11  1  0  0  0  0
  3 12  1  0  0  0  0
  2 13  4  0  0  0  0
 13 14  1  0  0  0  0
 13 15  4  0  0  0  0
 15 16  1  0  0  0  0
 15 17  4  0  0  0  0
 17 18  1  0  0  0  0
 18 19  1  0  0  0  0
 18 20  1  0  0  0  0
 18 21  1  0  0  0  0
 17 22  4  0  0  0  0
 22  1  4  0  0  0  0
 22 23  1  0  0  0  0
 23 24  1  0  0  0  0
  1 25  1  0  0  0  0
M  END
> <CAS>
499-75-2

> <NAME>
Phenol, 2-methyl-5-(1-methylethyl)-

> <preferred_name>
Isopropyl-o-cresol

> <iupac>
2-methyl-5-(propan-2-yl)phenol

> <SMILES>
Cc1ccc(cc1O)C(C)C

> <Canonical_QSARr>
Cc1ccc(cc1O)C(C)C

> <InChI_Code_QSARr>
InChI=1S/C10H14O/c1-7(2)9-5-4-8(3)10(11)6-9/h4-7,11H,1-3H3

> <InChI Key_QSARr>
RECUKUPTGUEGMW-UHFFFAOYSA-N

> <Salt_Solvent>
?

> <WS Temperature>
25

> <WS Reference>
YALKOWSKY,SH & DANNENFELSER,RM (1992)

> <dsstox_substance_id>
DTXSID6042074

> <LogMolar>
-2.0798

$$$$
500-28-7
  -INDIGO-01081615412D

 26 26  0  0  0  0  0  0  0  0999 V2000
    7.2000   -1.3856    0.0000 N   0  0  0  0  0  0  0  0  0  0  0  0
    8.0000   -2.7713    0.0000 O   0  0  0  0  0  0  0  0  0  0  0  0
    8.0000    0.0000    0.0000 O   0  0  0  0  0  0  0  0  0  0  0  0
    5.6000   -1.3856    0.0000 C   0  0  0  0  0  0  0  0  0  0  0  0
    4.8000    0.0000    0.0000 C   0  0  0  0  0  0  0  0  0  0  0  0
    5.6000    1.3856    0.0000 H   0  0  0  0  0  0  0  0  0  0  0  0
    3.2000    0.0000    0.0000 C   0  0  0  0  0  0  0  0  0  0  0  0
    2.4000    1.3856    0.0000 H   0  0  0  0  0  0  0  0  0  0  0  0
    2.4000   -1.3856    0.0000 C   0  0  0  0  0  0  0  0  0  0  0  0
    0.8000   -1.3856    0.0000 O   0  0  0  0  0  0  0  0  0  0  0  0
   -0.0000    0.0000    0.0000 P   0  0  0  0  0  0  0  0  0  0  0  0
   -0.8000    1.3856    0.0000 O   0  0  0  0  0  0  0  0  0  0  0  0
   -2.4000    1.3856    0.0000 C   0  0  0  0  0  0  0  0  0  0  0  0
   -4.0000    1.3856    0.0000 H   0  0  0  0  0  0  0  0  0  0  0  0
   -3.2000    2.7713    0.0000 H   0  0  0  0  0  0  0  0  0  0  0  0
   -3.2000    0.0000    0.0000 H   0  0  0  0  0  0  0  0  0  0  0  0
   -1.3856   -0.8000    0.0000 O   0  0  0  0  0  0  0  0  0  0  0  0
   -1.3856   -2.4000    0.0000 C   0  0  0  0  0  0  0  0  0  0  0  0
   -2.7713   -3.2000    0.0000 H   0  0  0  0  0  0  0  0  0  0  0  0
   -1.3856   -4.0000    0.0000 H   0  0  0  0  0  0  0  0  0  0  0  0
   -0.0000   -3.2000    0.0000 H   0  0  0  0  0  0  0  0  0  0  0  0
    1.3856    0.8000    0.0000 S   0  0  0  0  0  0  0  0  0  0  0  0
    3.2000   -2.7713    0.0000 C   0  0  0  0  0  0  0  0  0  0  0  0
    2.4000   -4.1569    0.0000 H   0  0  0  0  0  0  0  0  0  0  0  0
    4.8000   -2.7713    0.0000 C   0  0  0  0  0  0  0  0  0  0  0  0
    5.6000   -4.1569    0.0000 Cl  0  0  0  0  0  0  0  0  0  0  0  0
  1  2  2  0  0  0  0
  1  3  1  0  0  0  0
  1  4  1  0  0  0  0
  4  5  4  0  0  0  0
  5  6  1  0  0  0  0
  5  7  4  0  0  0  0
  7  8  1  0  0  0  0
  7  9  4  0  0  0  0
  9 10  1  0  0  0  0
 10 11  1  0  0  0  0
 11 12  1  0  0  0  0
 12 13  1  0  0  0  0
 13 14  1  0  0  0  0
 13 15  1  0  0  0  0
 13 16  1  0  0  0  0
 11 17  1  0  0  0  0
 17 18  1  0  0  0  0
 18 19  1  0  0  0  0
 18 20  1  0  0  0  0
 18 21  1  0  0  0  0
 11 22  2  0  0  0  0
  9 23  4  0  0  0  0
 23 24  1  0  0  0  0
 23 25  4  0  0  0  0
 25  4  4  0  0  0  0
 25 26  1  0  0  0  0
M  CHG  2   1   1   3  -1
M  END
> <CAS>
500-28-7

> <NAME>
3-CHLORO-DIMETHYL PARATHION

> <preferred_name>
Chlorthion

> <iupac>
O-(3-chloro-4-nitrophenyl) O,O-dimethyl phosphorothioate

> <SMILES>
COP(=S)(Oc1cc(Cl)c(cc1)[N+]([O-])=O)OC

> <Canonical_QSARr>
COP(=S)(Oc1cc(Cl)c(cc1)[N+]([O-])=O)OC

> <InChI_Code_QSARr>
InChI=1S/C8H9ClNO5PS/c1-13-16(17,14-2)15-6-3-4-8(10(11)12)7(9)5-6/h3-5H,1-2H3

> <InChI Key_QSARr>
NZNRRXXETLSZRO-UHFFFAOYSA-N

> <Salt_Solvent>
?

> <WS Temperature>
20

> <WS Reference>
YALKOWSKY,SH & DANNENFELSER,RM (1992)

> <dsstox_substance_id>
DTXSID9041784

> <LogMolar>
-3.8717

$$$$
501-68-8
  -INDIGO-01081615412D

 25 25  0  0  0  0  0  0  0  0999 V2000
    6.4000    0.0000    0.0000 Cl  0  0  0  0  0  0  0  0  0  0  0  0
    5.6000   -1.3856    0.0000 C   0  0  0  0  0  0  0  0  0  0  0  0
    4.0000   -1.3856    0.0000 C   0  0  0  0  0  0  0  0  0  0  0  0
    2.4000   -1.3856    0.0000 C   0  0  0  0  0  0  0  0  0  0  0  0
    1.6000    0.0000    0.0000 N   0  0  0  0  0  0  0  0  0  0  0  0
    0.0000    0.0000    0.0000 C   0  0  0  0  0  0  0  0  0  0  0  0
   -1.6000    0.0000    0.0000 C   0  0  0  0  0  0  0  0  0  0  0  0
   -2.4000    1.3856    0.0000 C   0  0  0  0  0  0  0  0  0  0  0  0
   -1.6000    2.7713    0.0000 H   0  0  0  0  0  0  0  0  0  0  0  0
   -4.0000    1.3856    0.0000 C   0  0  0  0  0  0  0  0  0  0  0  0
   -4.8000    2.7713    0.0000 H   0  0  0  0  0  0  0  0  0  0  0  0
   -4.8000    0.0000    0.0000 C   0  0  0  0  0  0  0  0  0  0  0  0
   -6.4000    0.0000    0.0000 H   0  0  0  0  0  0  0  0  0  0  0  0
   -4.0000   -1.3856    0.0000 C   0  0  0  0  0  0  0  0  0  0  0  0
   -4.8000   -2.7713    0.0000 H   0  0  0  0  0  0  0  0  0  0  0  0
   -2.4000   -1.3856    0.0000 C   0  0  0  0  0  0  0  0  0  0  0  0
   -1.6000   -2.7713    0.0000 H   0  0  0  0  0  0  0  0  0  0  0  0
    0.0000   -1.6000    0.0000 H   0  0  0  0  0  0  0  0  0  0  0  0
    0.0000    1.6000    0.0000 H   0  0  0  0  0  0  0  0  0  0  0  0
    2.4000    1.3856    0.0000 H   0  0  0  0  0  0  0  0  0  0  0  0
    1.6000   -2.7713    0.0000 O   0  0  0  0  0  0  0  0  0  0  0  0
    4.0000   -2.9856    0.0000 H   0  0  0  0  0  0  0  0  0  0  0  0
    4.0000    0.2144    0.0000 H   0  0  0  0  0  0  0  0  0  0  0  0
    7.2000   -1.3856    0.0000 H   0  0  0  0  0  0  0  0  0  0  0  0
    6.4000   -2.7713    0.0000 H   0  0  0  0  0  0  0  0  0  0  0  0
  1  2  1  0  0  0  0
  2  3  1  0  0  0  0
  3  4  1  0  0  0  0
  4  5  1  0  0  0  0
  5  6  1  0  0  0  0
  6  7  1  0  0  0  0
  7  8  4  0  0  0  0
  8  9  1  0  0  0  0
  8 10  4  0  0  0  0
 10 11  1  0  0  0  0
 10 12  4  0  0  0  0
 12 13  1  0  0  0  0
 12 14  4  0  0  0  0
 14 15  1  0  0  0  0
 14 16  4  0  0  0  0
 16  7  4  0  0  0  0
 16 17  1  0  0  0  0
  6 18  1  0  0  0  0
  6 19  1  0  0  0  0
  5 20  1  0  0  0  0
  4 21  2  0  0  0  0
  3 22  1  0  0  0  0
  3 23  1  0  0  0  0
  2 24  1  0  0  0  0
  2 25  1  0  0  0  0
M  END
> <CAS>
501-68-8

> <NAME>
N-benzyl-3-chloropropanamide

> <preferred_name>
Beclamide

> <iupac>
N-benzyl-3-chloropropanamide

> <SMILES>
O=C(CCCl)NCc1ccccc1

> <Canonical_QSARr>
O=C(CCCl)NCc1ccccc1

> <InChI_Code_QSARr>
InChI=1S/C10H12ClNO/c11-7-6-10(13)12-8-9-4-2-1-3-5-9/h1-5H,6-8H2,(H,12,13)

> <InChI Key_QSARr>
JPYQFYIEOUVJDU-UHFFFAOYSA-N

> <Salt_Solvent>
?

> <WS Temperature>


> <WS Reference>
MERCK INDEX (1996)

> <dsstox_substance_id>
DTXSID5057755

> <LogMolar>
-3.2959

$$$$
502-55-6
  -INDIGO-01081615412D

 22 21  0  0  0  0  0  0  0  0999 V2000
   -6.9282    0.8000    0.0000 C   0  0  0  0  0  0  0  0  0  0  0  0
   -8.3139   -0.0000    0.0000 O   0  0  0  0  0  0  0  0  0  0  0  0
   -9.6996    0.8000    0.0000 C   0  0  0  0  0  0  0  0  0  0  0  0
  -11.0851    1.6000    0.0000 C   0  0  0  0  0  0  0  0  0  0  0  0
  -12.4708    2.4000    0.0000 H   0  0  0  0  0  0  0  0  0  0  0  0
  -12.4708    0.8000    0.0000 H   0  0  0  0  0  0  0  0  0  0  0  0
  -11.0851    3.2000    0.0000 H   0  0  0  0  0  0  0  0  0  0  0  0
  -10.4994   -0.5856    0.0000 H   0  0  0  0  0  0  0  0  0  0  0  0
   -8.8995    2.1856    0.0000 H   0  0  0  0  0  0  0  0  0  0  0  0
   -6.9282    2.4000    0.0000 S   0  0  0  0  0  0  0  0  0  0  0  0
   -5.5425   -0.0000    0.0000 S   0  0  0  0  0  0  0  0  0  0  0  0
   -4.1570    0.8000    0.0000 S   0  0  0  0  0  0  0  0  0  0  0  0
   -2.7713   -0.0000    0.0000 C   0  0  0  0  0  0  0  0  0  0  0  0
   -1.3856    0.8000    0.0000 O   0  0  0  0  0  0  0  0  0  0  0  0
    0.0001   -0.0000    0.0000 C   0  0  0  0  0  0  0  0  0  0  0  0
    1.3856   -0.8000    0.0000 C   0  0  0  0  0  0  0  0  0  0  0  0
    2.7713   -1.6000    0.0000 H   0  0  0  0  0  0  0  0  0  0  0  0
    1.3856   -2.4000    0.0000 H   0  0  0  0  0  0  0  0  0  0  0  0
    2.7713   -0.0000    0.0000 H   0  0  0  0  0  0  0  0  0  0  0  0
    0.7999    1.3856    0.0000 H   0  0  0  0  0  0  0  0  0  0  0  0
   -0.8000   -1.3856    0.0000 H   0  0  0  0  0  0  0  0  0  0  0  0
   -2.7713   -1.6000    0.0000 S   0  0  0  0  0  0  0  0  0  0  0  0
  1  2  1  0  0  0  0
  2  3  1  0  0  0  0
  3  4  1  0  0  0  0
  4  5  1  0  0  0  0
  4  6  1  0  0  0  0
  4  7  1  0  0  0  0
  3  8  1  0  0  0  0
  3  9  1  0  0  0  0
  1 10  2  0  0  0  0
  1 11  1  0  0  0  0
 11 12  1  0  0  0  0
 12 13  1  0  0  0  0
 13 14  1  0  0  0  0
 14 15  1  0  0  0  0
 15 16  1  0  0  0  0
 16 17  1  0  0  0  0
 16 18  1  0  0  0  0
 16 19  1  0  0  0  0
 15 20  1  0  0  0  0
 15 21  1  0  0  0  0
 13 22  2  0  0  0  0
M  END
> <CAS>
502-55-6

> <NAME>
BIS(ETHYLXANTHOGEN)

> <preferred_name>
Bis(ethylxanthogen)

> <iupac>
1,1'-[disulfanediylbis(carbonothioyloxy)]diethane

> <SMILES>
CCOC(=S)SSC(=S)OCC

> <Canonical_QSARr>
CCOC(=S)SSC(=S)OCC

> <InChI_Code_QSARr>
InChI=1S/C6H10O2S4/c1-3-7-5(9)11-12-6(10)8-4-2/h3-4H2,1-2H3

> <InChI Key_QSARr>
FVIGODVHAVLZOO-UHFFFAOYSA-N

> <Salt_Solvent>
?

> <WS Temperature>
25

> <WS Reference>
YALKOWSKY,SH & DANNENFELSER,RM (1992)

> <dsstox_substance_id>
DTXSID2041672

> <LogMolar>
-4.9432

$$$$
503-74-2
  -INDIGO-01081615412D

 17 16  0  0  0  0  0  0  0  0999 V2000
    3.0071    1.0945    0.0000 C   0  0  0  0  0  0  0  0  0  0  0  0
    3.2849    2.6701    0.0000 O   0  0  0  0  0  0  0  0  0  0  0  0
    4.2327    0.0660    0.0000 O   0  0  0  0  0  0  0  0  0  0  0  0
    5.7362    0.6132    0.0000 H   0  0  0  0  0  0  0  0  0  0  0  0
    1.5036    0.5472    0.0000 C   0  0  0  0  0  0  0  0  0  0  0  0
    0.0000    0.0000    0.0000 C   0  0  0  0  0  0  0  0  0  0  0  0
   -1.3856   -0.8000    0.0000 C   0  0  0  0  0  0  0  0  0  0  0  0
   -2.7713   -1.6000    0.0000 H   0  0  0  0  0  0  0  0  0  0  0  0
   -1.3856   -2.4000    0.0000 H   0  0  0  0  0  0  0  0  0  0  0  0
   -2.7713    0.0000    0.0000 H   0  0  0  0  0  0  0  0  0  0  0  0
   -0.8000    1.3856    0.0000 C   0  0  0  0  0  0  0  0  0  0  0  0
   -1.6000    2.7713    0.0000 H   0  0  0  0  0  0  0  0  0  0  0  0
   -2.4000    1.3856    0.0000 H   0  0  0  0  0  0  0  0  0  0  0  0
    0.0000    2.7713    0.0000 H   0  0  0  0  0  0  0  0  0  0  0  0
    0.8000   -1.3856    0.0000 H   0  0  0  0  0  0  0  0  0  0  0  0
    2.0507   -0.9563    0.0000 H   0  0  0  0  0  0  0  0  0  0  0  0
    1.2256    2.1229    0.0000 H   0  0  0  0  0  0  0  0  0  0  0  0
  1  2  2  0  0  0  0
  1  3  1  0  0  0  0
  3  4  1  0  0  0  0
  1  5  1  0  0  0  0
  5  6  1  0  0  0  0
  6  7  1  0  0  0  0
  7  8  1  0  0  0  0
  7  9  1  0  0  0  0
  7 10  1  0  0  0  0
  6 11  1  0  0  0  0
 11 12  1  0  0  0  0
 11 13  1  0  0  0  0
 11 14  1  0  0  0  0
  6 15  1  0  0  0  0
  5 16  1  0  0  0  0
  5 17  1  0  0  0  0
M  END
> <CAS>
503-74-2

> <NAME>
ISOVALERIC ACID

> <preferred_name>
Isovaleric acid

> <iupac>
3-methylbutanoic acid

> <SMILES>
CC(C)CC(O)=O

> <Canonical_QSARr>
CC(C)CC(O)=O

> <InChI_Code_QSARr>
InChI=1S/C5H10O2/c1-4(2)3-5(6)7/h4H,3H2,1-2H3,(H,6,7)

> <InChI Key_QSARr>
GWYFCOCPABKNJV-UHFFFAOYSA-N

> <Salt_Solvent>
?

> <WS Temperature>
20

> <WS Reference>
YALKOWSKY,SH & DANNENFELSER,RM (1992)

> <dsstox_substance_id>
DTXSID5029182

> <LogMolar>
-0.3996

$$$$
507-19-7
  -INDIGO-01081615412D

 14 13  0  0  0  0  0  0  0  0999 V2000
    0.0000    0.0000    0.0000 C   0  0  0  0  0  0  0  0  0  0  0  0
    0.0000   -1.6000    0.0000 Br  0  0  0  0  0  0  0  0  0  0  0  0
   -1.6000    0.0000    0.0000 C   0  0  0  0  0  0  0  0  0  0  0  0
   -3.2000    0.0000    0.0000 H   0  0  0  0  0  0  0  0  0  0  0  0
   -2.4000   -1.3856    0.0000 H   0  0  0  0  0  0  0  0  0  0  0  0
   -2.4000    1.3856    0.0000 H   0  0  0  0  0  0  0  0  0  0  0  0
    0.0000    1.6000    0.0000 C   0  0  0  0  0  0  0  0  0  0  0  0
   -0.0000    3.2000    0.0000 H   0  0  0  0  0  0  0  0  0  0  0  0
    1.3856    2.4000    0.0000 H   0  0  0  0  0  0  0  0  0  0  0  0
   -1.3856    2.4000    0.0000 H   0  0  0  0  0  0  0  0  0  0  0  0
    1.6000    0.0000    0.0000 C   0  0  0  0  0  0  0  0  0  0  0  0
    3.2000    0.0000    0.0000 H   0  0  0  0  0  0  0  0  0  0  0  0
    2.4000   -1.3856    0.0000 H   0  0  0  0  0  0  0  0  0  0  0  0
    2.4000    1.3856    0.0000 H   0  0  0  0  0  0  0  0  0  0  0  0
  1  2  1  0  0  0  0
  1  3  1  0  0  0  0
  3  4  1  0  0  0  0
  3  5  1  0  0  0  0
  3  6  1  0  0  0  0
  1  7  1  0  0  0  0
  7  8  1  0  0  0  0
  7  9  1  0  0  0  0
  7 10  1  0  0  0  0
  1 11  1  0  0  0  0
 11 12  1  0  0  0  0
 11 13  1  0  0  0  0
 11 14  1  0  0  0  0
M  END
> <CAS>
507-19-7

> <NAME>
2-BROMO-2-METHYLPROPANE

> <preferred_name>
Propane, 2-bromo-2-methyl-

> <iupac>
2-Bromo-2-methylpropane

> <SMILES>
CC(C)(C)Br

> <Canonical_QSARr>
CC(C)(C)Br

> <InChI_Code_QSARr>
InChI=1S/C4H9Br/c1-4(2,3)5/h1-3H3

> <InChI Key_QSARr>
RKSOPLXZQNSWAS-UHFFFAOYSA-N

> <Salt_Solvent>
?

> <WS Temperature>
25

> <WS Reference>
YAWS,CL & YANG,HC (1990)

> <dsstox_substance_id>
DTXSID5060144

> <LogMolar>
-2.3586

$$$$
509-14-8
  -INDIGO-01081615412D

 13 12  0  0  0  0  0  0  0  0999 V2000
    2.4000   -1.3857    0.0000 O   0  0  0  0  0  0  0  0  0  0  0  0
    1.6000    0.0000    0.0000 N   0  0  0  0  0  0  0  0  0  0  0  0
    2.4000    1.3857    0.0000 O   0  0  0  0  0  0  0  0  0  0  0  0
    0.0000    0.0000    0.0000 C   0  0  0  0  0  0  0  0  0  0  0  0
   -1.6000   -0.0000    0.0000 N   0  0  0  0  0  0  0  0  0  0  0  0
   -2.4000   -1.3857    0.0000 O   0  0  0  0  0  0  0  0  0  0  0  0
   -2.4000    1.3857    0.0000 O   0  0  0  0  0  0  0  0  0  0  0  0
    0.0000    1.6000    0.0000 N   0  0  0  0  0  0  0  0  0  0  0  0
    1.3857    2.4000    0.0000 O   0  0  0  0  0  0  0  0  0  0  0  0
   -1.3857    2.4000    0.0000 O   0  0  0  0  0  0  0  0  0  0  0  0
    0.0000   -1.6000    0.0000 N   0  0  0  0  0  0  0  0  0  0  0  0
   -1.3857   -2.4000    0.0000 O   0  0  0  0  0  0  0  0  0  0  0  0
    1.3857   -2.4000    0.0000 O   0  0  0  0  0  0  0  0  0  0  0  0
  1  2  2  0  0  0  0
  2  3  1  0  0  0  0
  2  4  1  0  0  0  0
  4  5  1  0  0  0  0
  5  6  1  0  0  0  0
  5  7  2  0  0  0  0
  4  8  1  0  0  0  0
  8  9  1  0  0  0  0
  8 10  2  0  0  0  0
  4 11  1  0  0  0  0
 11 12  1  0  0  0  0
 11 13  2  0  0  0  0
M  CHG  8   2   1   3  -1   5   1   6  -1   8   1   9  -1  11   1  12  -1
M  END
> <CAS>
509-14-8

> <NAME>
TETRANITROMETHANE

> <preferred_name>
Tetranitromethane

> <iupac>
tetranitromethane

> <SMILES>
[O-][N+](=O)C([N+]([O-])=O)([N+]([O-])=O)[N+]([O-])=O

> <Canonical_QSARr>
[O-][N+](=O)C([N+]([O-])=O)([N+]([O-])=O)[N+]([O-])=O

> <InChI_Code_QSARr>
InChI=1S/CN4O8/c6-2(7)1(3(8)9,4(10)11)5(12)13

> <InChI Key_QSARr>
NYTOUQBROMCLBJ-UHFFFAOYSA-N

> <Salt_Solvent>
?

> <WS Temperature>
25

> <WS Reference>
PAGE,JD & WILSON,IB (1985)

> <dsstox_substance_id>
DTXSID5021334

> <LogMolar>
-2.3381

$$$$
510-15-6
  -INDIGO-01081615412D

 35 36  0  0  0  0  0  0  0  0999 V2000
   -1.3857   -0.8001    0.0000 O   0  0  0  0  0  0  0  0  0  0  0  0
    0.0001   -0.0000    0.0000 C   0  0  0  0  0  0  0  0  0  0  0  0
    1.0284    1.2257    0.0000 C   0  0  0  0  0  0  0  0  0  0  0  0
    2.6041    0.9478    0.0000 O   0  0  0  0  0  0  0  0  0  0  0  0
    3.6326    2.1735    0.0000 C   0  0  0  0  0  0  0  0  0  0  0  0
    4.6611    3.3991    0.0000 C   0  0  0  0  0  0  0  0  0  0  0  0
    5.6896    4.6249    0.0000 H   0  0  0  0  0  0  0  0  0  0  0  0
    6.2368    3.1214    0.0000 H   0  0  0  0  0  0  0  0  0  0  0  0
    4.1138    4.9026    0.0000 H   0  0  0  0  0  0  0  0  0  0  0  0
    4.8583    1.1451    0.0000 H   0  0  0  0  0  0  0  0  0  0  0  0
    2.4069    3.2020    0.0000 H   0  0  0  0  0  0  0  0  0  0  0  0
    0.4813    2.7292    0.0000 O   0  0  0  0  0  0  0  0  0  0  0  0
    0.8000   -1.3856    0.0000 C   0  0  0  0  0  0  0  0  0  0  0  0
    2.4000   -1.3856    0.0000 C   0  0  0  0  0  0  0  0  0  0  0  0
    3.2000   -0.0000    0.0000 H   0  0  0  0  0  0  0  0  0  0  0  0
    3.2000   -2.7712    0.0000 C   0  0  0  0  0  0  0  0  0  0  0  0
    4.7999   -2.7712    0.0000 H   0  0  0  0  0  0  0  0  0  0  0  0
    2.4000   -4.1570    0.0000 C   0  0  0  0  0  0  0  0  0  0  0  0
    3.2000   -5.5426    0.0000 Cl  0  0  0  0  0  0  0  0  0  0  0  0
    0.8000   -4.1570    0.0000 C   0  0  0  0  0  0  0  0  0  0  0  0
    0.0001   -5.5426    0.0000 H   0  0  0  0  0  0  0  0  0  0  0  0
    0.0001   -2.7712    0.0000 C   0  0  0  0  0  0  0  0  0  0  0  0
   -1.2256   -3.7997    0.0000 H   0  0  0  0  0  0  0  0  0  0  0  0
   -1.2256    1.0285    0.0000 C   0  0  0  0  0  0  0  0  0  0  0  0
   -1.2256    2.6284    0.0000 C   0  0  0  0  0  0  0  0  0  0  0  0
    0.0001    3.6569    0.0000 H   0  0  0  0  0  0  0  0  0  0  0  0
   -2.6114    3.4285    0.0000 C   0  0  0  0  0  0  0  0  0  0  0  0
   -2.6114    5.0285    0.0000 H   0  0  0  0  0  0  0  0  0  0  0  0
   -3.9970    2.6284    0.0000 C   0  0  0  0  0  0  0  0  0  0  0  0
   -5.3826    3.4285    0.0000 Cl  0  0  0  0  0  0  0  0  0  0  0  0
   -3.9970    1.0285    0.0000 C   0  0  0  0  0  0  0  0  0  0  0  0
   -5.3826    0.2284    0.0000 H   0  0  0  0  0  0  0  0  0  0  0  0
   -2.6114    0.2284    0.0000 C   0  0  0  0  0  0  0  0  0  0  0  0
   -2.6114   -1.3716    0.0000 H   0  0  0  0  0  0  0  0  0  0  0  0
   -1.3857   -2.4000    0.0000 H   0  0  0  0  0  0  0  0  0  0  0  0
  1  2  1  0  0  0  0
  2  3  1  0  0  0  0
  3  4  1  0  0  0  0
  4  5  1  0  0  0  0
  5  6  1  0  0  0  0
  6  7  1  0  0  0  0
  6  8  1  0  0  0  0
  6  9  1  0  0  0  0
  5 10  1  0  0  0  0
  5 11  1  0  0  0  0
  3 12  2  0  0  0  0
  2 13  1  0  0  0  0
 13 14  4  0  0  0  0
 14 15  1  0  0  0  0
 14 16  4  0  0  0  0
 16 17  1  0  0  0  0
 16 18  4  0  0  0  0
 18 19  1  0  0  0  0
 18 20  4  0  0  0  0
 20 21  1  0  0  0  0
 20 22  4  0  0  0  0
 22 13  4  0  0  0  0
 22 23  1  0  0  0  0
  2 24  1  0  0  0  0
 24 25  4  0  0  0  0
 25 26  1  0  0  0  0
 25 27  4  0  0  0  0
 27 28  1  0  0  0  0
 27 29  4  0  0  0  0
 29 30  1  0  0  0  0
 29 31  4  0  0  0  0
 31 32  1  0  0  0  0
 31 33  4  0  0  0  0
 33 24  4  0  0  0  0
 33 34  1  0  0  0  0
  1 35  1  0  0  0  0
M  END
> <CAS>
510-15-6

> <NAME>
CHLOROBENZILATE

> <preferred_name>
Chlorobenzilate

> <iupac>
ethyl bis(4-chlorophenyl)(hydroxy)acetate

> <SMILES>
CCOC(=O)C(O)(c1ccc(Cl)cc1)c1ccc(Cl)cc1

> <Canonical_QSARr>
CCOC(=O)C(O)(c1ccc(Cl)cc1)c1ccc(Cl)cc1

> <InChI_Code_QSARr>
InChI=1S/C16H14Cl2O3/c1-2-21-15(19)16(20,11-3-7-13(17)8-4-11)12-5-9-14(18)10-6-12/h3-10,20H,2H2,1H3

> <InChI Key_QSARr>
RAPBNVDSDCTNRC-UHFFFAOYSA-N

> <Salt_Solvent>
?

> <WS Temperature>
20

> <WS Reference>
FURER,R & GEIGER,M (1977)

> <dsstox_substance_id>
DTXSID9020299

> <LogMolar>
-4.4551

$$$$
512-56-1
  -INDIGO-01081615412D

 17 16  0  0  0  0  0  0  0  0999 V2000
    0.0001   -1.6000    0.0000 O   0  0  0  0  0  0  0  0  0  0  0  0
    0.0001    0.0001    0.0000 P   0  0  0  0  0  0  0  0  0  0  0  0
   -1.6001   -0.0001    0.0000 O   0  0  0  0  0  0  0  0  0  0  0  0
   -2.4000   -1.3856    0.0000 C   0  0  0  0  0  0  0  0  0  0  0  0
   -4.0000   -1.3856    0.0000 H   0  0  0  0  0  0  0  0  0  0  0  0
   -3.1999   -2.7713    0.0000 H   0  0  0  0  0  0  0  0  0  0  0  0
   -1.5999   -2.7713    0.0000 H   0  0  0  0  0  0  0  0  0  0  0  0
    0.0001    1.6000    0.0000 O   0  0  0  0  0  0  0  0  0  0  0  0
    1.3856    2.4000    0.0000 C   0  0  0  0  0  0  0  0  0  0  0  0
    1.3856    4.0000    0.0000 H   0  0  0  0  0  0  0  0  0  0  0  0
    2.7712    3.2000    0.0000 H   0  0  0  0  0  0  0  0  0  0  0  0
   -0.0001    3.2000    0.0000 H   0  0  0  0  0  0  0  0  0  0  0  0
    1.6001    0.0001    0.0000 O   0  0  0  0  0  0  0  0  0  0  0  0
    2.4000   -1.3856    0.0000 C   0  0  0  0  0  0  0  0  0  0  0  0
    3.2001   -2.7713    0.0000 H   0  0  0  0  0  0  0  0  0  0  0  0
    4.0000   -1.3856    0.0000 H   0  0  0  0  0  0  0  0  0  0  0  0
    1.6001   -2.7713    0.0000 H   0  0  0  0  0  0  0  0  0  0  0  0
  1  2  2  0  0  0  0
  2  3  1  0  0  0  0
  3  4  1  0  0  0  0
  4  5  1  0  0  0  0
  4  6  1  0  0  0  0
  4  7  1  0  0  0  0
  2  8  1  0  0  0  0
  8  9  1  0  0  0  0
  9 10  1  0  0  0  0
  9 11  1  0  0  0  0
  9 12  1  0  0  0  0
  2 13  1  0  0  0  0
 13 14  1  0  0  0  0
 14 15  1  0  0  0  0
 14 16  1  0  0  0  0
 14 17  1  0  0  0  0
M  END
> <CAS>
512-56-1

> <NAME>
TRIMETHYL PHOSPHATE

> <preferred_name>
Trimethyl phosphate

> <iupac>
trimethyl phosphate

> <SMILES>
COP(=O)(OC)OC

> <Canonical_QSARr>
COP(=O)(OC)OC

> <InChI_Code_QSARr>
InChI=1S/C3H9O4P/c1-5-8(4,6-2)7-3/h1-3H3

> <InChI Key_QSARr>
WVLBCYQITXONBZ-UHFFFAOYSA-N

> <Salt_Solvent>
?

> <WS Temperature>
25

> <WS Reference>
YALKOWSKY,SH & DANNENFELSER,RM (1992)

> <dsstox_substance_id>
DTXSID1021403

> <LogMolar>
0.5526

$$$$
513-37-1
  -INDIGO-01081615412D

 12 11  0  0  0  0  0  0  0  0999 V2000
    1.3856    0.8000    0.0000 C   0  0  0  0  0  0  0  0  0  0  0  0
   -0.0000    0.0000    0.0000 C   0  0  0  0  0  0  0  0  0  0  0  0
   -1.3856    0.8000    0.0000 C   0  0  0  0  0  0  0  0  0  0  0  0
   -2.7713    1.6000    0.0000 H   0  0  0  0  0  0  0  0  0  0  0  0
   -2.7713    0.0000    0.0000 H   0  0  0  0  0  0  0  0  0  0  0  0
   -1.3856    2.4000    0.0000 H   0  0  0  0  0  0  0  0  0  0  0  0
    0.0000   -1.6000    0.0000 C   0  0  0  0  0  0  0  0  0  0  0  0
    1.3856   -2.4000    0.0000 Cl  0  0  0  0  0  0  0  0  0  0  0  0
   -1.3856   -2.4000    0.0000 H   0  0  0  0  0  0  0  0  0  0  0  0
    2.7713    1.6000    0.0000 H   0  0  0  0  0  0  0  0  0  0  0  0
    2.7713    0.0000    0.0000 H   0  0  0  0  0  0  0  0  0  0  0  0
    1.3856    2.4000    0.0000 H   0  0  0  0  0  0  0  0  0  0  0  0
  1  2  1  0  0  0  0
  2  3  1  0  0  0  0
  3  4  1  0  0  0  0
  3  5  1  0  0  0  0
  3  6  1  0  0  0  0
  2  7  2  0  0  0  0
  7  8  1  0  0  0  0
  7  9  1  0  0  0  0
  1 10  1  0  0  0  0
  1 11  1  0  0  0  0
  1 12  1  0  0  0  0
M  END
> <CAS>
513-37-1

> <NAME>
1-CHLORO-2-METHYLPROPENE

> <preferred_name>
2,2-Dimethylvinyl chloride

> <iupac>
1-chloro-2-methylprop-1-ene

> <SMILES>
CC(C)=CCl

> <Canonical_QSARr>
CC(C)=CCl

> <InChI_Code_QSARr>
InChI=1S/C4H7Cl/c1-4(2)3-5/h3H,1-2H3

> <InChI Key_QSARr>
KWISWUFGPUHDRY-UHFFFAOYSA-N

> <Salt_Solvent>
?

> <WS Temperature>
25

> <WS Reference>
SHIU,WY ET AL. (1990)

> <dsstox_substance_id>
DTXSID5020520

> <LogMolar>
-1.9569

$$$$
513-81-5
  -INDIGO-01081615412D

 16 15  0  0  0  0  0  0  0  0999 V2000
   -0.8000    1.3856    0.0000 C   0  0  0  0  0  0  0  0  0  0  0  0
    0.0000    0.0000    0.0000 C   0  0  0  0  0  0  0  0  0  0  0  0
    1.6000    0.0000    0.0000 C   0  0  0  0  0  0  0  0  0  0  0  0
    2.4000   -1.3856    0.0000 C   0  0  0  0  0  0  0  0  0  0  0  0
    4.0000   -1.3856    0.0000 H   0  0  0  0  0  0  0  0  0  0  0  0
    1.6000   -2.7713    0.0000 H   0  0  0  0  0  0  0  0  0  0  0  0
    2.4000    1.3856    0.0000 C   0  0  0  0  0  0  0  0  0  0  0  0
    3.2000    2.7713    0.0000 H   0  0  0  0  0  0  0  0  0  0  0  0
    4.0000    1.3856    0.0000 H   0  0  0  0  0  0  0  0  0  0  0  0
    1.6000    2.7713    0.0000 H   0  0  0  0  0  0  0  0  0  0  0  0
   -0.8000   -1.3856    0.0000 C   0  0  0  0  0  0  0  0  0  0  0  0
   -1.6000   -2.7713    0.0000 H   0  0  0  0  0  0  0  0  0  0  0  0
   -2.4000   -1.3856    0.0000 H   0  0  0  0  0  0  0  0  0  0  0  0
    0.0000   -2.7713    0.0000 H   0  0  0  0  0  0  0  0  0  0  0  0
   -2.4000    1.3856    0.0000 H   0  0  0  0  0  0  0  0  0  0  0  0
    0.0000    2.7713    0.0000 H   0  0  0  0  0  0  0  0  0  0  0  0
  1  2  2  0  0  0  0
  2  3  1  0  0  0  0
  3  4  2  0  0  0  0
  4  5  1  0  0  0  0
  4  6  1  0  0  0  0
  3  7  1  0  0  0  0
  7  8  1  0  0  0  0
  7  9  1  0  0  0  0
  7 10  1  0  0  0  0
  2 11  1  0  0  0  0
 11 12  1  0  0  0  0
 11 13  1  0  0  0  0
 11 14  1  0  0  0  0
  1 15  1  0  0  0  0
  1 16  1  0  0  0  0
M  END
> <CAS>
513-81-5

> <NAME>
2,3-DIMETHYL-1,3-BUTADIENE

> <preferred_name>
2,3-Dimethyl-1,3-butadiene

> <iupac>
2,3-dimethylbuta-1,3-diene

> <SMILES>
CC(=C)C(C)=C

> <Canonical_QSARr>
CC(=C)C(C)=C

> <InChI_Code_QSARr>
InChI=1S/C6H10/c1-5(2)6(3)4/h1,3H2,2,4H3

> <InChI Key_QSARr>
SDJHPPZKZZWAKF-UHFFFAOYSA-N

> <Salt_Solvent>
?

> <WS Temperature>
25

> <WS Reference>
HINE,J & MOOKERJEE,PK (1975)

> <dsstox_substance_id>
DTXSID2022046

> <LogMolar>
-2.4007

$$$$
514-17-0
  -INDIGO-01081615412D

 52 55  0  0  0  0  0  0  0  0999 V2000
    2.6778    2.9613    0.0000 O   0  0  0  0  0  0  0  0  0  0  0  0
    2.4000    1.3857    0.0000 C   0  0  0  0  0  0  0  0  0  0  0  0
    3.9999    1.3857    0.0000 C   0  0  0  0  0  0  0  0  0  0  0  0
    4.4239    1.9187    0.0000 H   0  0  0  0  0  0  0  0  0  0  0  0
    3.7221    2.9613    0.0000 H   0  0  0  0  0  0  0  0  0  0  0  0
    4.8000   -0.0001    0.0000 C   0  0  0  0  0  0  0  0  0  0  0  0
    5.7404    1.2944    0.0000 C   0  0  0  0  0  0  0  0  0  0  0  0
    6.6809    2.5888    0.0000 H   0  0  0  0  0  0  0  0  0  0  0  0
    5.5035    1.9329    0.0000 H   0  0  0  0  0  0  0  0  0  0  0  0
    7.3317    1.1272    0.0000 H   0  0  0  0  0  0  0  0  0  0  0  0
    6.3650   -0.3327    0.0000 C   0  0  0  0  0  0  0  0  0  0  0  0
    6.5323   -1.9239    0.0000 C   0  0  0  0  0  0  0  0  0  0  0  0
    5.0707   -2.5747    0.0000 C   0  0  0  0  0  0  0  0  0  0  0  0
    3.9592   -3.7257    0.0000 H   0  0  0  0  0  0  0  0  0  0  0  0
    5.8705   -3.9603    0.0000 H   0  0  0  0  0  0  0  0  0  0  0  0
    3.9999   -1.3856    0.0000 C   0  0  0  0  0  0  0  0  0  0  0  0
    3.8884   -2.9817    0.0000 H   0  0  0  0  0  0  0  0  0  0  0  0
    2.4000   -1.3856    0.0000 C   0  0  0  0  0  0  0  0  0  0  0  0
    1.6000   -2.7713    0.0000 C   0  0  0  0  0  0  0  0  0  0  0  0
   -0.0001   -2.7713    0.0000 C   0  0  0  0  0  0  0  0  0  0  0  0
   -0.7999   -1.3856    0.0000 C   0  0  0  0  0  0  0  0  0  0  0  0
   -2.4000   -1.3856    0.0000 C   0  0  0  0  0  0  0  0  0  0  0  0
   -3.9036   -1.9329    0.0000 H   0  0  0  0  0  0  0  0  0  0  0  0
   -2.4000   -2.9857    0.0000 H   0  0  0  0  0  0  0  0  0  0  0  0
   -3.2001   -0.0001    0.0000 C   0  0  0  0  0  0  0  0  0  0  0  0
   -4.4256    1.0285    0.0000 O   0  0  0  0  0  0  0  0  0  0  0  0
   -5.9292    0.4812    0.0000 H   0  0  0  0  0  0  0  0  0  0  0  0
   -4.4256   -1.0284    0.0000 H   0  0  0  0  0  0  0  0  0  0  0  0
   -2.4000    1.3857    0.0000 C   0  0  0  0  0  0  0  0  0  0  0  0
   -2.1222    2.9613    0.0000 H   0  0  0  0  0  0  0  0  0  0  0  0
   -3.9036    1.9329    0.0000 H   0  0  0  0  0  0  0  0  0  0  0  0
   -0.7999    1.3857    0.0000 C   0  0  0  0  0  0  0  0  0  0  0  0
   -0.1358    1.9937    0.0000 H   0  0  0  0  0  0  0  0  0  0  0  0
   -1.0777    2.9613    0.0000 H   0  0  0  0  0  0  0  0  0  0  0  0
   -0.0001   -0.0001    0.0000 C   0  0  0  0  0  0  0  0  0  0  0  0
    0.4115    0.4902    0.0000 C   0  0  0  0  0  0  0  0  0  0  0  0
    0.5035    1.3860    0.0000 H   0  0  0  0  0  0  0  0  0  0  0  0
    0.7999    1.3857    0.0000 H   0  0  0  0  0  0  0  0  0  0  0  0
    0.9585   -1.0133    0.0000 H   0  0  0  0  0  0  0  0  0  0  0  0
    1.6000   -0.0001    0.0000 C   0  0  0  0  0  0  0  0  0  0  0  0
    1.5092    0.9718    0.0000 H   0  0  0  0  0  0  0  0  0  0  0  0
   -1.6000   -2.7713    0.0000 H   0  0  0  0  0  0  0  0  0  0  0  0
   -1.3857   -3.5712    0.0000 H   0  0  0  0  0  0  0  0  0  0  0  0
    0.2779   -4.3470    0.0000 H   0  0  0  0  0  0  0  0  0  0  0  0
    1.3222   -4.3470    0.0000 H   0  0  0  0  0  0  0  0  0  0  0  0
    2.9856   -3.5712    0.0000 H   0  0  0  0  0  0  0  0  0  0  0  0
    3.2001   -2.7713    0.0000 H   0  0  0  0  0  0  0  0  0  0  0  0
    7.0267   -3.4456    0.0000 H   0  0  0  0  0  0  0  0  0  0  0  0
    8.0973   -1.5912    0.0000 H   0  0  0  0  0  0  0  0  0  0  0  0
    7.7219    0.5152    0.0000 O   0  0  0  0  0  0  0  0  0  0  0  0
    1.3716    2.6113    0.0000 H   0  0  0  0  0  0  0  0  0  0  0  0
    1.4521    3.9898    0.0000 H   0  0  0  0  0  0  0  0  0  0  0  0
  1  2  1  0  0  0  0
  2  3  1  0  0  0  0
  3  4  1  0  0  0  0
  3  5  1  0  0  0  0
  3  6  1  0  0  0  0
  6  7  1  0  0  0  0
  7  8  1  0  0  0  0
  7  9  1  0  0  0  0
  7 10  1  0  0  0  0
  6 11  1  0  0  0  0
 11 12  1  0  0  0  0
 12 13  1  0  0  0  0
 13 14  1  0  0  0  0
 13 15  1  0  0  0  0
 13 16  1  0  0  0  0
 16  6  1  0  0  0  0
 16 17  1  0  0  0  0
 16 18  1  0  0  0  0
 18 19  1  0  0  0  0
 19 20  1  0  0  0  0
 20 21  1  0  0  0  0
 21 22  1  0  0  0  0
 22 23  1  0  0  0  0
 22 24  1  0  0  0  0
 22 25  1  0  0  0  0
 25 26  1  0  0  0  0
 26 27  1  0  0  0  0
 25 28  1  0  0  0  0
 25 29  1  0  0  0  0
 29 30  1  0  0  0  0
 29 31  1  0  0  0  0
 29 32  1  0  0  0  0
 32 33  1  0  0  0  0
 32 34  1  0  0  0  0
 32 35  1  0  0  0  0
 35 21  1  0  0  0  0
 35 36  1  0  0  0  0
 36 37  1  0  0  0  0
 36 38  1  0  0  0  0
 36 39  1  0  0  0  0
 35 40  1  0  0  0  0
 40  2  1  0  0  0  0
 40 18  1  0  0  0  0
 40 41  1  0  0  0  0
 21 42  1  0  0  0  0
 20 43  1  0  0  0  0
 20 44  1  0  0  0  0
 19 45  1  0  0  0  0
 19 46  1  0  0  0  0
 18 47  1  0  0  0  0
 12 48  1  0  0  0  0
 12 49  1  0  0  0  0
 11 50  2  0  0  0  0
  2 51  1  0  0  0  0
  1 52  1  0  0  0  0
M  END
> <CAS>
514-17-0

> <NAME>
3,11-Dihydroxy-androstan-17-one

> <preferred_name>
11-Hydroxyandrosterone

> <iupac>
(3R,5S,8S,9S,10S,11R,13S,14S)-3,11-dihydroxy-10,13-dimethyl-1,2,3,4,5,6,7,8,9,11,12,14,15,16-tetradecahydrocyclopenta[a]phenanthren-17-one

> <SMILES>
C[C@]12C[C@@H](O)[C@H]3[C@@H](CC[C@H]4C[C@H](O)CC[C@@]43C)[C@@H]1CCC2=O

> <Canonical_QSARr>
CC12CC(O)C3C(CCC4CC(O)CCC43C)C1CCC2=O

> <InChI_Code_QSARr>
InChI=1S/C19H30O3/c1-18-8-7-12(20)9-11(18)3-4-13-14-5-6-16(22)19(14,2)10-15(21)17(13)18/h11-15,17,20-21H,3-10H2,1-2H3

> <InChI Key_QSARr>
PIXFHVWJOVNKQK-UHFFFAOYSA-N

> <Salt_Solvent>
?

> <WS Temperature>
23

> <WS Reference>
YALKOWSKY,SH & DANNENFELSER,RM (1992)

> <dsstox_substance_id>
DTXSID50195617

> <LogMolar>
-3.5932

$$$$
515-64-0
  -INDIGO-01081615412D

 33 34  0  0  0  0  0  0  0  0999 V2000
    6.9281    0.8000    0.0000 C   0  0  0  0  0  0  0  0  0  0  0  0
    5.5427    0.0001    0.0000 C   0  0  0  0  0  0  0  0  0  0  0  0
    4.1570    0.8000    0.0000 C   0  0  0  0  0  0  0  0  0  0  0  0
    4.1570    2.4000    0.0000 H   0  0  0  0  0  0  0  0  0  0  0  0
    2.7713   -0.0001    0.0000 C   0  0  0  0  0  0  0  0  0  0  0  0
    1.3856    0.8000    0.0000 N   0  0  0  0  0  0  0  0  0  0  0  0
    0.0001   -0.0001    0.0000 S   0  0  0  0  0  0  0  0  0  0  0  0
   -1.3856   -0.8000    0.0000 C   0  0  0  0  0  0  0  0  0  0  0  0
   -2.7713   -0.0001    0.0000 C   0  0  0  0  0  0  0  0  0  0  0  0
   -2.7713    1.5999    0.0000 H   0  0  0  0  0  0  0  0  0  0  0  0
   -4.1570   -0.8000    0.0000 C   0  0  0  0  0  0  0  0  0  0  0  0
   -5.5425   -0.0001    0.0000 H   0  0  0  0  0  0  0  0  0  0  0  0
   -4.1570   -2.4000    0.0000 C   0  0  0  0  0  0  0  0  0  0  0  0
   -5.5425   -3.2001    0.0000 N   0  0  0  0  0  0  0  0  0  0  0  0
   -6.9282   -2.4000    0.0000 H   0  0  0  0  0  0  0  0  0  0  0  0
   -5.5425   -4.8001    0.0000 H   0  0  0  0  0  0  0  0  0  0  0  0
   -2.7713   -3.2001    0.0000 C   0  0  0  0  0  0  0  0  0  0  0  0
   -2.7713   -4.8001    0.0000 H   0  0  0  0  0  0  0  0  0  0  0  0
   -1.3856   -2.4000    0.0000 C   0  0  0  0  0  0  0  0  0  0  0  0
    0.0001   -3.2001    0.0000 H   0  0  0  0  0  0  0  0  0  0  0  0
    0.7999   -1.3857    0.0000 O   0  0  0  0  0  0  0  0  0  0  0  0
   -0.8000    1.3856    0.0000 O   0  0  0  0  0  0  0  0  0  0  0  0
    1.3856    2.4000    0.0000 H   0  0  0  0  0  0  0  0  0  0  0  0
    2.7713   -1.6001    0.0000 N   0  0  0  1  0  0  0  0  0  0  0  0
    4.1570   -2.4000    0.0000 C   0  0  0  0  0  0  0  0  0  0  0  0
    4.1570   -4.0000    0.0000 C   0  0  0  0  0  0  0  0  0  0  0  0
    4.1570   -5.6000    0.0000 H   0  0  0  0  0  0  0  0  0  0  0  0
    5.5427   -4.8001    0.0000 H   0  0  0  0  0  0  0  0  0  0  0  0
    2.7713   -4.7999    0.0000 H   0  0  0  0  0  0  0  0  0  0  0  0
    5.5427   -1.5999    0.0000 N   0  0  0  1  0  0  0  0  0  0  0  0
    8.3138    1.6001    0.0000 H   0  0  0  0  0  0  0  0  0  0  0  0
    8.3138    0.0001    0.0000 H   0  0  0  0  0  0  0  0  0  0  0  0
    6.9281    2.4000    0.0000 H   0  0  0  0  0  0  0  0  0  0  0  0
  1  2  1  0  0  0  0
  2  3  4  0  0  0  0
  3  4  1  0  0  0  0
  3  5  4  0  0  0  0
  5  6  1  0  0  0  0
  6  7  1  0  0  0  0
  7  8  1  0  0  0  0
  8  9  4  0  0  0  0
  9 10  1  0  0  0  0
  9 11  4  0  0  0  0
 11 12  1  0  0  0  0
 11 13  4  0  0  0  0
 13 14  1  0  0  0  0
 14 15  1  0  0  0  0
 14 16  1  0  0  0  0
 13 17  4  0  0  0  0
 17 18  1  0  0  0  0
 17 19  4  0  0  0  0
 19  8  4  0  0  0  0
 19 20  1  0  0  0  0
  7 21  2  0  0  0  0
  7 22  2  0  0  0  0
  6 23  1  0  0  0  0
  5 24  4  0  0  0  0
 24 25  4  0  0  0  0
 25 26  1  0  0  0  0
 26 27  1  0  0  0  0
 26 28  1  0  0  0  0
 26 29  1  0  0  0  0
 25 30  4  0  0  0  0
 30  2  4  0  0  0  0
  1 31  1  0  0  0  0
  1 32  1  0  0  0  0
  1 33  1  0  0  0  0
M  END
> <CAS>
515-64-0

> <NAME>
SULFISOMIDINE

> <preferred_name>
Sulfisomidine

> <iupac>
4-amino-N-(2,6-dimethylpyrimidin-4-yl)benzenesulfonamide

> <SMILES>
Cc1cc(NS(=O)(=O)c2ccc(N)cc2)[n]c(C)[n]1

> <Canonical_QSARr>
Cc1cc(NS(=O)(=O)c2ccc(N)cc2)[n]c(C)[n]1

> <InChI_Code_QSARr>
InChI=1S/C12H14N4O2S/c1-8-7-12(15-9(2)14-8)16-19(17,18)11-5-3-10(13)4-6-11/h3-7H,13H2,1-2H3,(H,14,15,16)

> <InChI Key_QSARr>
YZMCKZRAOLZXAZ-UHFFFAOYSA-N

> <Salt_Solvent>
?

> <WS Temperature>


> <WS Reference>
YALKOWSKY,SH & DANNENFELSER,RM (1992)

> <dsstox_substance_id>
DTXSID1046390

> <LogMolar>
-2.2372

$$$$
522-66-7
  -INDIGO-01081615412D

 50 53  0  0  0  0  0  0  0  0999 V2000
    6.2298   -0.5906    0.0000 C   0  0  0  0  0  0  0  0  0  0  0  0
    4.6542   -0.8684    0.0000 C   0  0  0  0  0  0  0  0  0  0  0  0
    3.6256    0.3572    0.0000 C   0  0  0  0  0  0  0  0  0  0  0  0
    4.8514    1.3857    0.0000 O   0  0  0  0  0  0  0  0  0  0  0  0
    4.5734    2.9613    0.0000 H   0  0  0  0  0  0  0  0  0  0  0  0
    2.4000    1.3857    0.0000 C   0  0  0  0  0  0  0  0  0  0  0  0
    1.5999    2.7712    0.0000 N   0  0  0  0  0  0  0  0  0  0  0  0
    0.5256    2.2370    0.0000 C   0  0  0  0  0  0  0  0  0  0  0  0
   -0.0744    1.1976    0.0000 C   0  0  0  0  0  0  0  0  0  0  0  0
   -1.5890    1.7137    0.0000 H   0  0  0  0  0  0  0  0  0  0  0  0
   -1.4259    0.3411    0.0000 H   0  0  0  0  0  0  0  0  0  0  0  0
   -0.0001   -0.0000    0.0000 C   0  0  0  0  0  0  0  0  0  0  0  0
   -0.7999    1.3857    0.0000 C   0  0  0  0  0  0  0  0  0  0  0  0
   -2.0257    2.4141    0.0000 C   0  0  0  0  0  0  0  0  0  0  0  0
   -3.2513    3.4426    0.0000 C   0  0  0  0  0  0  0  0  0  0  0  0
   -4.4771    4.4710    0.0000 H   0  0  0  0  0  0  0  0  0  0  0  0
   -4.7549    2.8954    0.0000 H   0  0  0  0  0  0  0  0  0  0  0  0
   -2.9736    5.0183    0.0000 H   0  0  0  0  0  0  0  0  0  0  0  0
   -3.0541    1.1884    0.0000 H   0  0  0  0  0  0  0  0  0  0  0  0
   -1.5036    3.3185    0.0000 H   0  0  0  0  0  0  0  0  0  0  0  0
   -0.0001    2.7712    0.0000 C   0  0  0  0  0  0  0  0  0  0  0  0
    0.2779    4.3470    0.0000 H   0  0  0  0  0  0  0  0  0  0  0  0
   -0.7876    3.4571    0.0000 H   0  0  0  0  0  0  0  0  0  0  0  0
   -2.0257    0.3572    0.0000 H   0  0  0  0  0  0  0  0  0  0  0  0
   -0.7999   -1.3857    0.0000 H   0  0  0  0  0  0  0  0  0  0  0  0
    1.5999   -0.0000    0.0000 C   0  0  0  0  0  0  0  0  0  0  0  0
    1.3222   -1.5756    0.0000 H   0  0  0  0  0  0  0  0  0  0  0  0
    2.4000   -0.6712    0.0000 H   0  0  0  0  0  0  0  0  0  0  0  0
    0.8683    3.7998    0.0000 H   0  0  0  0  0  0  0  0  0  0  0  0
   -1.0441    2.5473    0.0000 H   0  0  0  0  0  0  0  0  0  0  0  0
    3.6256    2.4141    0.0000 H   0  0  0  0  0  0  0  0  0  0  0  0
    3.1034   -0.5472    0.0000 H   0  0  0  0  0  0  0  0  0  0  0  0
    4.1069   -2.3719    0.0000 C   0  0  0  0  0  0  0  0  0  0  0  0
    2.5313   -2.6499    0.0000 H   0  0  0  0  0  0  0  0  0  0  0  0
    5.1353   -3.5977    0.0000 C   0  0  0  0  0  0  0  0  0  0  0  0
    4.5880   -5.1012    0.0000 H   0  0  0  0  0  0  0  0  0  0  0  0
    6.7111   -3.3199    0.0000 N   0  0  0  1  0  0  0  0  0  0  0  0
    7.2584   -1.8164    0.0000 C   0  0  0  0  0  0  0  0  0  0  0  0
    8.8340   -1.5384    0.0000 C   0  0  0  0  0  0  0  0  0  0  0  0
    9.8623   -2.7641    0.0000 H   0  0  0  0  0  0  0  0  0  0  0  0
    9.3812   -0.0351    0.0000 C   0  0  0  0  0  0  0  0  0  0  0  0
   10.9569    0.2429    0.0000 H   0  0  0  0  0  0  0  0  0  0  0  0
    8.3526    1.1907    0.0000 C   0  0  0  0  0  0  0  0  0  0  0  0
    8.8999    2.6942    0.0000 O   0  0  0  0  0  0  0  0  0  0  0  0
   10.4758    2.9720    0.0000 C   0  0  0  0  0  0  0  0  0  0  0  0
   12.0514    3.2499    0.0000 H   0  0  0  0  0  0  0  0  0  0  0  0
   11.0230    4.4755    0.0000 H   0  0  0  0  0  0  0  0  0  0  0  0
    9.4472    4.1977    0.0000 H   0  0  0  0  0  0  0  0  0  0  0  0
    6.7770    0.9129    0.0000 C   0  0  0  0  0  0  0  0  0  0  0  0
    5.7487    2.1385    0.0000 H   0  0  0  0  0  0  0  0  0  0  0  0
  1  2  4  0  0  0  0
  2  3  1  0  0  0  0
  3  4  1  0  0  0  0
  4  5  1  0  0  0  0
  3  6  1  0  0  0  0
  6  7  1  0  0  0  0
  7  8  1  0  0  0  0
  8  9  1  0  0  0  0
  9 10  1  0  0  0  0
  9 11  1  0  0  0  0
  9 12  1  0  0  0  0
 12 13  1  0  0  0  0
 13 14  1  0  0  0  0
 14 15  1  0  0  0  0
 15 16  1  0  0  0  0
 15 17  1  0  0  0  0
 15 18  1  0  0  0  0
 14 19  1  0  0  0  0
 14 20  1  0  0  0  0
 13 21  1  0  0  0  0
 21  7  1  0  0  0  0
 21 22  1  0  0  0  0
 21 23  1  0  0  0  0
 13 24  1  0  0  0  0
 12 25  1  0  0  0  0
 12 26  1  0  0  0  0
 26  6  1  0  0  0  0
 26 27  1  0  0  0  0
 26 28  1  0  0  0  0
  8 29  1  0  0  0  0
  8 30  1  0  0  0  0
  6 31  1  0  0  0  0
  3 32  1  0  0  0  0
  2 33  4  0  0  0  0
 33 34  1  0  0  0  0
 33 35  4  0  0  0  0
 35 36  1  0  0  0  0
 35 37  4  0  0  0  0
 37 38  4  0  0  0  0
 38  1  4  0  0  0  0
 38 39  4  0  0  0  0
 39 40  1  0  0  0  0
 39 41  4  0  0  0  0
 41 42  1  0  0  0  0
 41 43  4  0  0  0  0
 43 44  1  0  0  0  0
 44 45  1  0  0  0  0
 45 46  1  0  0  0  0
 45 47  1  0  0  0  0
 45 48  1  0  0  0  0
 43 49  4  0  0  0  0
 49  1  4  0  0  0  0
 49 50  1  0  0  0  0
M  END
> <CAS>
522-66-7

> <NAME>
HYDROQUININE

> <preferred_name>


> <iupac>


> <SMILES>
CC[C@H]1C[N@@]2CC[C@H]1C[C@H]2[C@H](O)c1cc[n]c2ccc(cc12)OC

> <Canonical_QSARr>
CCC1CN2CCC1CC2C(O)c1cc[n]c2ccc(cc12)OC

> <InChI_Code_QSARr>
InChI=1S/C20H26N2O2/c1-3-13-12-22-9-7-14(13)10-19(22)20(23)16-6-8-21-18-5-4-15(24-2)11-17(16)18/h4-6,8,11,13-14,19-20,23H,3,7,9-10,12H2,1-2H3

> <InChI Key_QSARr>
LJOQGZACKSYWCH-UHFFFAOYSA-N

> <Salt_Solvent>
?

> <WS Temperature>
25

> <WS Reference>
SEIDELL,A (1941)

> <dsstox_substance_id>


> <LogMolar>
-3.0514

$$$$
526-30-7
  -INDIGO-01081615412D

 26 27  0  0  0  0  0  0  0  0999 V2000
    2.2158    1.7944    0.0000 N   0  0  0  1  0  0  0  0  0  0  0  0
    3.8071    1.6271    0.0000 N   0  0  0  1  0  0  0  0  0  0  0  0
    4.8777    2.8161    0.0000 H   0  0  0  0  0  0  0  0  0  0  0  0
    4.1397    0.0620    0.0000 C   0  0  0  0  0  0  0  0  0  0  0  0
    5.5254   -0.7379    0.0000 C   0  0  0  0  0  0  0  0  0  0  0  0
    5.5254   -2.3380    0.0000 C   0  0  0  0  0  0  0  0  0  0  0  0
    4.1397   -3.1379    0.0000 C   0  0  0  0  0  0  0  0  0  0  0  0
    2.7541   -2.3380    0.0000 C   0  0  0  0  0  0  0  0  0  0  0  0
    1.3685   -3.1379    0.0000 H   0  0  0  0  0  0  0  0  0  0  0  0
    2.7541   -0.7379    0.0000 C   0  0  0  0  0  0  0  0  0  0  0  0
    1.5650    0.3327    0.0000 C   0  0  0  0  0  0  0  0  0  0  0  0
   -0.0001    0.0000    0.0000 C   0  0  0  0  0  0  0  0  0  0  0  0
   -1.5650   -0.3326    0.0000 C   0  0  0  0  0  0  0  0  0  0  0  0
   -2.1644    1.1508    0.0000 N   0  0  0  0  0  0  0  0  0  0  0  0
   -3.7489    1.3735    0.0000 H   0  0  0  0  0  0  0  0  0  0  0  0
   -1.4132    2.5636    0.0000 H   0  0  0  0  0  0  0  0  0  0  0  0
   -3.0485   -0.9320    0.0000 C   0  0  0  0  0  0  0  0  0  0  0  0
   -4.3093    0.0530    0.0000 O   0  0  0  0  0  0  0  0  0  0  0  0
   -5.7928   -0.5464    0.0000 H   0  0  0  0  0  0  0  0  0  0  0  0
   -3.2713   -2.5165    0.0000 O   0  0  0  0  0  0  0  0  0  0  0  0
   -0.9656   -1.8161    0.0000 H   0  0  0  0  0  0  0  0  0  0  0  0
   -0.3327    1.5650    0.0000 H   0  0  0  0  0  0  0  0  0  0  0  0
    0.3326   -1.5651    0.0000 H   0  0  0  0  0  0  0  0  0  0  0  0
    4.1397   -4.7379    0.0000 H   0  0  0  0  0  0  0  0  0  0  0  0
    6.9110   -3.1379    0.0000 H   0  0  0  0  0  0  0  0  0  0  0  0
    6.9110    0.0620    0.0000 H   0  0  0  0  0  0  0  0  0  0  0  0
  1  2  4  0  0  0  0
  2  3  1  0  0  0  0
  2  4  4  0  0  0  0
  4  5  4  0  0  0  0
  5  6  4  0  0  0  0
  6  7  4  0  0  0  0
  7  8  4  0  0  0  0
  8  9  1  0  0  0  0
  8 10  4  0  0  0  0
 10  4  4  0  0  0  0
 10 11  4  0  0  0  0
 11  1  4  0  0  0  0
 11 12  1  0  0  0  0
 12 13  1  0  0  0  0
 13 14  1  0  0  0  0
 14 15  1  0  0  0  0
 14 16  1  0  0  0  0
 13 17  1  0  0  0  0
 17 18  1  0  0  0  0
 18 19  1  0  0  0  0
 17 20  2  0  0  0  0
 13 21  1  0  0  0  0
 12 22  1  0  0  0  0
 12 23  1  0  0  0  0
  7 24  1  0  0  0  0
  6 25  1  0  0  0  0
  5 26  1  0  0  0  0
M  END
> <CAS>
526-30-7

> <NAME>
TRYPTAZAN

> <preferred_name>


> <iupac>


> <SMILES>
NC(Cc1[n][nH]c2ccccc21)C(O)=O

> <Canonical_QSARr>
NC(Cc1[n][nH]c2ccccc21)C(O)=O

> <InChI_Code_QSARr>
InChI=1S/C10H11N3O2/c11-7(10(14)15)5-9-6-3-1-2-4-8(6)12-13-9/h1-4,7H,5,11H2,(H,12,13)(H,14,15)

> <InChI Key_QSARr>
IFEKQNAXDMZERW-UHFFFAOYSA-N

> <Salt_Solvent>
?

> <WS Temperature>
29

> <WS Reference>
MERCK INDEX (1996)

> <dsstox_substance_id>


> <LogMolar>
-1.4091

$$$$
526-99-8, 527-00-4, 608-60-6, 5666-23-9, 117468-79-8
  -INDIGO-01081615412D

 24 23  0  0  0  0  0  0  0  0999 V2000
   -1.5999   -0.0000    0.0000 C   0  0  0  0  0  0  0  0  0  0  0  0
   -1.5999   -1.6000    0.0000 O   0  0  0  0  0  0  0  0  0  0  0  0
   -2.9857   -2.4000    0.0000 H   0  0  0  0  0  0  0  0  0  0  0  0
   -3.2000   -0.0000    0.0000 C   0  0  0  0  0  0  0  0  0  0  0  0
   -4.0000   -1.3856    0.0000 O   0  0  0  0  0  0  0  0  0  0  0  0
   -5.6000   -1.3856    0.0000 H   0  0  0  0  0  0  0  0  0  0  0  0
   -4.0000    1.3857    0.0000 O   0  0  0  0  0  0  0  0  0  0  0  0
    0.0001   -0.0000    0.0000 C   0  0  0  0  0  0  0  0  0  0  0  0
    0.0001    1.6000    0.0000 O   0  0  0  0  0  0  0  0  0  0  0  0
   -1.2257    2.6285    0.0000 H   0  0  0  0  0  0  0  0  0  0  0  0
    1.5999   -0.0000    0.0000 C   0  0  0  0  0  0  0  0  0  0  0  0
    1.5999   -1.6000    0.0000 O   0  0  0  0  0  0  0  0  0  0  0  0
    2.6284   -2.8257    0.0000 H   0  0  0  0  0  0  0  0  0  0  0  0
    3.1999   -0.0000    0.0000 C   0  0  0  0  0  0  0  0  0  0  0  0
    3.1999    1.6000    0.0000 O   0  0  0  0  0  0  0  0  0  0  0  0
    4.5857    2.4000    0.0000 H   0  0  0  0  0  0  0  0  0  0  0  0
    4.8000   -0.0000    0.0000 C   0  0  0  0  0  0  0  0  0  0  0  0
    5.6000    1.3857    0.0000 O   0  0  0  0  0  0  0  0  0  0  0  0
    7.2000    1.3857    0.0000 H   0  0  0  0  0  0  0  0  0  0  0  0
    5.6000   -1.3856    0.0000 O   0  0  0  0  0  0  0  0  0  0  0  0
    3.1999   -1.6000    0.0000 H   0  0  0  0  0  0  0  0  0  0  0  0
    1.5999    1.6000    0.0000 H   0  0  0  0  0  0  0  0  0  0  0  0
    0.0001   -1.6000    0.0000 H   0  0  0  0  0  0  0  0  0  0  0  0
   -1.5999    1.6000    0.0000 H   0  0  0  0  0  0  0  0  0  0  0  0
  1  2  1  0  0  0  0
  2  3  1  0  0  0  0
  1  4  1  0  0  0  0
  4  5  1  0  0  0  0
  5  6  1  0  0  0  0
  4  7  2  0  0  0  0
  1  8  1  0  0  0  0
  8  9  1  0  0  0  0
  9 10  1  0  0  0  0
  8 11  1  0  0  0  0
 11 12  1  0  0  0  0
 12 13  1  0  0  0  0
 11 14  1  0  0  0  0
 14 15  1  0  0  0  0
 15 16  1  0  0  0  0
 14 17  1  0  0  0  0
 17 18  1  0  0  0  0
 18 19  1  0  0  0  0
 17 20  2  0  0  0  0
 14 21  1  0  0  0  0
 11 22  1  0  0  0  0
  8 23  1  0  0  0  0
  1 24  1  0  0  0  0
M  END
> <CAS>
526-99-8, 527-00-4, 608-60-6, 5666-23-9, 117468-79-8

> <NAME>
Galactaric acid, Allaric acid, Altraric acid, D-, Altraric acid, L-Altraric acid

> <preferred_name>
Mucic acid

> <iupac>
D-galactaric acid

> <SMILES>
OC(=O)[C@@H](O)[C@H](O)[C@H](O)[C@@H](O)C(O)=O

> <Canonical_QSARr>
OC(=O)C(O)C(O)C(O)C(O)C(O)=O

> <InChI_Code_QSARr>
InChI=1S/C6H10O8/c7-1(3(9)5(11)12)2(8)4(10)6(13)14/h1-4,7-10H,(H,11,12)(H,13,14)

> <InChI Key_QSARr>
DSLZVSRJTYRBFB-UHFFFAOYSA-N

> <Salt_Solvent>
?

> <WS Temperature>
22

> <WS Reference>
YALKOWSKY,SH & DANNENFELSER,RM (1992)

> <dsstox_substance_id>
DTXSID7048740

> <LogMolar>
-0.64082

$$$$
528-10-9
  -INDIGO-01081615412D

 32 33  0  0  0  0  0  0  0  0999 V2000
    2.4000   -1.3857    0.0000 C   0  0  0  0  0  0  0  0  0  0  0  0
    4.0000   -1.3857    0.0000 C   0  0  0  0  0  0  0  0  0  0  0  0
    4.8000   -2.7713    0.0000 C   0  0  0  0  0  0  0  0  0  0  0  0
    4.0000   -4.1569    0.0000 O   0  0  0  0  0  0  0  0  0  0  0  0
    4.8000   -5.5426    0.0000 H   0  0  0  0  0  0  0  0  0  0  0  0
    6.4000   -2.7713    0.0000 C   0  0  0  0  0  0  0  0  0  0  0  0
    7.2000   -4.1569    0.0000 H   0  0  0  0  0  0  0  0  0  0  0  0
    7.2000   -1.3857    0.0000 C   0  0  0  0  0  0  0  0  0  0  0  0
    8.8000   -1.3857    0.0000 H   0  0  0  0  0  0  0  0  0  0  0  0
    6.4000    0.0001    0.0000 C   0  0  0  0  0  0  0  0  0  0  0  0
    7.2000    1.3857    0.0000 N   0  0  0  0  0  0  0  0  0  0  0  0
    8.8000    1.3857    0.0000 O   0  0  0  0  0  0  0  0  0  0  0  0
    6.4000    2.7713    0.0000 O   0  0  0  0  0  0  0  0  0  0  0  0
    4.8000    0.0001    0.0000 C   0  0  0  0  0  0  0  0  0  0  0  0
    4.0000    1.3857    0.0000 H   0  0  0  0  0  0  0  0  0  0  0  0
    1.6000   -2.7713    0.0000 O   0  0  0  0  0  0  0  0  0  0  0  0
    1.6000    0.0001    0.0000 C   0  0  0  0  0  0  0  0  0  0  0  0
    0.0000    0.0001    0.0000 C   0  0  0  0  0  0  0  0  0  0  0  0
   -0.8000    1.3857    0.0000 C   0  0  0  0  0  0  0  0  0  0  0  0
    0.0000    2.7713    0.0000 O   0  0  0  0  0  0  0  0  0  0  0  0
   -0.8000    4.1569    0.0000 H   0  0  0  0  0  0  0  0  0  0  0  0
   -2.4000    1.3857    0.0000 C   0  0  0  0  0  0  0  0  0  0  0  0
   -3.2000    2.7713    0.0000 H   0  0  0  0  0  0  0  0  0  0  0  0
   -3.2000    0.0001    0.0000 C   0  0  0  0  0  0  0  0  0  0  0  0
   -4.8000    0.0001    0.0000 H   0  0  0  0  0  0  0  0  0  0  0  0
   -2.4000   -1.3857    0.0000 C   0  0  0  0  0  0  0  0  0  0  0  0
   -3.2000   -2.7713    0.0000 N   0  0  0  0  0  0  0  0  0  0  0  0
   -4.8000   -2.7713    0.0000 O   0  0  0  0  0  0  0  0  0  0  0  0
   -2.4000   -4.1569    0.0000 O   0  0  0  0  0  0  0  0  0  0  0  0
   -0.8000   -1.3857    0.0000 C   0  0  0  0  0  0  0  0  0  0  0  0
    0.0000   -2.7713    0.0000 H   0  0  0  0  0  0  0  0  0  0  0  0
    2.4000    1.3857    0.0000 O   0  0  0  0  0  0  0  0  0  0  0  0
  1  2  1  0  0  0  0
  2  3  4  0  0  0  0
  3  4  1  0  0  0  0
  4  5  1  0  0  0  0
  3  6  4  0  0  0  0
  6  7  1  0  0  0  0
  6  8  4  0  0  0  0
  8  9  1  0  0  0  0
  8 10  4  0  0  0  0
 10 11  1  0  0  0  0
 11 12  2  0  0  0  0
 11 13  1  0  0  0  0
 10 14  4  0  0  0  0
 14  2  4  0  0  0  0
 14 15  1  0  0  0  0
  1 16  2  0  0  0  0
  1 17  1  0  0  0  0
 17 18  1  0  0  0  0
 18 19  4  0  0  0  0
 19 20  1  0  0  0  0
 20 21  1  0  0  0  0
 19 22  4  0  0  0  0
 22 23  1  0  0  0  0
 22 24  4  0  0  0  0
 24 25  1  0  0  0  0
 24 26  4  0  0  0  0
 26 27  1  0  0  0  0
 27 28  2  0  0  0  0
 27 29  1  0  0  0  0
 26 30  4  0  0  0  0
 30 18  4  0  0  0  0
 30 31  1  0  0  0  0
 17 32  2  0  0  0  0
M  CHG  4  11   1  13  -1  27   1  29  -1
M  END
> <CAS>
528-10-9

> <NAME>
Ethanedione, bis(2-hydroxy-5-nitrophenyl)-

> <preferred_name>


> <iupac>


> <SMILES>
[O-][N+](=O)c1cc(C(=O)C(=O)c2cc(ccc2O)[N+]([O-])=O)c(O)cc1

> <Canonical_QSARr>
[O-][N+](=O)c1cc(C(=O)C(=O)c2cc(ccc2O)[N+]([O-])=O)c(O)cc1

> <InChI_Code_QSARr>
InChI=1S/C14H8N2O8/c17-11-3-1-7(15(21)22)5-9(11)13(19)14(20)10-6-8(16(23)24)2-4-12(10)18/h1-6,17-18H

> <InChI Key_QSARr>
MLHGVVVOOIXMQL-UHFFFAOYSA-N

> <Salt_Solvent>
?

> <WS Temperature>
25

> <WS Reference>
MERCK INDEX (1996)

> <dsstox_substance_id>


> <LogMolar>
-3.5214

$$$$
528-45-0
  -INDIGO-01081615412D

 19 19  0  0  0  0  0  0  0  0999 V2000
    0.0000   -0.0000    0.0000 C   0  0  0  0  0  0  0  0  0  0  0  0
    1.3857    0.8000    0.0000 N   0  0  0  0  0  0  0  0  0  0  0  0
    2.7713   -0.0000    0.0000 O   0  0  0  0  0  0  0  0  0  0  0  0
    1.3857    2.4000    0.0000 O   0  0  0  0  0  0  0  0  0  0  0  0
   -1.3856    0.8000    0.0000 C   0  0  0  0  0  0  0  0  0  0  0  0
   -1.3856    2.4000    0.0000 H   0  0  0  0  0  0  0  0  0  0  0  0
   -2.7713   -0.0000    0.0000 C   0  0  0  0  0  0  0  0  0  0  0  0
   -4.1570    0.8000    0.0000 C   0  0  0  0  0  0  0  0  0  0  0  0
   -4.1570    2.4000    0.0000 O   0  0  0  0  0  0  0  0  0  0  0  0
   -5.5426   -0.0000    0.0000 O   0  0  0  0  0  0  0  0  0  0  0  0
   -6.9282    0.8000    0.0000 H   0  0  0  0  0  0  0  0  0  0  0  0
   -2.7713   -1.6000    0.0000 C   0  0  0  0  0  0  0  0  0  0  0  0
   -4.1570   -2.4000    0.0000 H   0  0  0  0  0  0  0  0  0  0  0  0
   -1.3856   -2.4000    0.0000 C   0  0  0  0  0  0  0  0  0  0  0  0
   -1.3856   -4.0000    0.0000 H   0  0  0  0  0  0  0  0  0  0  0  0
    0.0000   -1.6000    0.0000 C   0  0  0  0  0  0  0  0  0  0  0  0
    1.3857   -2.4000    0.0000 N   0  0  0  0  0  0  0  0  0  0  0  0
    1.3857   -4.0000    0.0000 O   0  0  0  0  0  0  0  0  0  0  0  0
    2.7713   -1.6000    0.0000 O   0  0  0  0  0  0  0  0  0  0  0  0
  1  2  1  0  0  0  0
  2  3  1  0  0  0  0
  2  4  2  0  0  0  0
  1  5  4  0  0  0  0
  5  6  1  0  0  0  0
  5  7  4  0  0  0  0
  7  8  1  0  0  0  0
  8  9  2  0  0  0  0
  8 10  1  0  0  0  0
 10 11  1  0  0  0  0
  7 12  4  0  0  0  0
 12 13  1  0  0  0  0
 12 14  4  0  0  0  0
 14 15  1  0  0  0  0
 14 16  4  0  0  0  0
 16  1  4  0  0  0  0
 16 17  1  0  0  0  0
 17 18  1  0  0  0  0
 17 19  2  0  0  0  0
M  CHG  4   2   1   3  -1  17   1  18  -1
M  END
> <CAS>
528-45-0

> <NAME>
3,4-DINITROBENZOIC ACID

> <preferred_name>
Benzoic acid, 3,4-dinitro-

> <iupac>
3,4-Dinitrobenzoic acid

> <SMILES>
[O-][N+](=O)c1ccc(cc1[N+]([O-])=O)C(O)=O

> <Canonical_QSARr>
[O-][N+](=O)c1ccc(cc1[N+]([O-])=O)C(O)=O

> <InChI_Code_QSARr>
InChI=1S/C7H4N2O6/c10-7(11)4-1-2-5(8(12)13)6(3-4)9(14)15/h1-3H,(H,10,11)

> <InChI Key_QSARr>
OMVRRHJJQILIJX-UHFFFAOYSA-N

> <Salt_Solvent>
?

> <WS Temperature>
25

> <WS Reference>
YALKOWSKY,SH & DANNENFELSER,RM (1992)

> <dsstox_substance_id>
DTXSID1060180

> <LogMolar>
-1.5005

$$$$
530-48-3
  -INDIGO-01081615412D

 26 27  0  0  0  0  0  0  0  0999 V2000
    1.5757   -0.2779    0.0000 C   0  0  0  0  0  0  0  0  0  0  0  0
    2.1230   -1.7814    0.0000 C   0  0  0  0  0  0  0  0  0  0  0  0
    1.0945   -3.0070    0.0000 H   0  0  0  0  0  0  0  0  0  0  0  0
    3.6985   -2.0592    0.0000 C   0  0  0  0  0  0  0  0  0  0  0  0
    4.2459   -3.5626    0.0000 H   0  0  0  0  0  0  0  0  0  0  0  0
    4.7270   -0.8335    0.0000 C   0  0  0  0  0  0  0  0  0  0  0  0
    6.3028   -1.1113    0.0000 H   0  0  0  0  0  0  0  0  0  0  0  0
    4.1799    0.6700    0.0000 C   0  0  0  0  0  0  0  0  0  0  0  0
    5.2083    1.8957    0.0000 H   0  0  0  0  0  0  0  0  0  0  0  0
    2.6041    0.9479    0.0000 C   0  0  0  0  0  0  0  0  0  0  0  0
    2.0570    2.4513    0.0000 H   0  0  0  0  0  0  0  0  0  0  0  0
    0.0001   -0.0000    0.0000 C   0  0  0  0  0  0  0  0  0  0  0  0
   -0.2779    1.5757    0.0000 C   0  0  0  0  0  0  0  0  0  0  0  0
    0.9479    2.6042    0.0000 H   0  0  0  0  0  0  0  0  0  0  0  0
   -1.7814    2.1230    0.0000 H   0  0  0  0  0  0  0  0  0  0  0  0
   -1.3857   -0.8001    0.0000 C   0  0  0  0  0  0  0  0  0  0  0  0
   -2.7713   -0.0000    0.0000 C   0  0  0  0  0  0  0  0  0  0  0  0
   -2.7713    1.6000    0.0000 H   0  0  0  0  0  0  0  0  0  0  0  0
   -4.1569   -0.8001    0.0000 C   0  0  0  0  0  0  0  0  0  0  0  0
   -5.5426   -0.0000    0.0000 H   0  0  0  0  0  0  0  0  0  0  0  0
   -4.1569   -2.4000    0.0000 C   0  0  0  0  0  0  0  0  0  0  0  0
   -5.5426   -3.2000    0.0000 H   0  0  0  0  0  0  0  0  0  0  0  0
   -2.7713   -3.2000    0.0000 C   0  0  0  0  0  0  0  0  0  0  0  0
   -2.7713   -4.8000    0.0000 H   0  0  0  0  0  0  0  0  0  0  0  0
   -1.3857   -2.4000    0.0000 C   0  0  0  0  0  0  0  0  0  0  0  0
   -0.1599   -3.4284    0.0000 H   0  0  0  0  0  0  0  0  0  0  0  0
  1  2  4  0  0  0  0
  2  3  1  0  0  0  0
  2  4  4  0  0  0  0
  4  5  1  0  0  0  0
  4  6  4  0  0  0  0
  6  7  1  0  0  0  0
  6  8  4  0  0  0  0
  8  9  1  0  0  0  0
  8 10  4  0  0  0  0
 10  1  4  0  0  0  0
 10 11  1  0  0  0  0
  1 12  1  0  0  0  0
 12 13  2  0  0  0  0
 13 14  1  0  0  0  0
 13 15  1  0  0  0  0
 12 16  1  0  0  0  0
 16 17  4  0  0  0  0
 17 18  1  0  0  0  0
 17 19  4  0  0  0  0
 19 20  1  0  0  0  0
 19 21  4  0  0  0  0
 21 22  1  0  0  0  0
 21 23  4  0  0  0  0
 23 24  1  0  0  0  0
 23 25  4  0  0  0  0
 25 16  4  0  0  0  0
 25 26  1  0  0  0  0
M  END
> <CAS>
530-48-3

> <NAME>
1,1-DIPHENYLETHYLENE

> <preferred_name>
Benzene, 1,1'-ethenylidenebis-

> <iupac>
1-phenylethenylbenzene

> <SMILES>
C=C(c1ccccc1)c1ccccc1

> <Canonical_QSARr>
C=C(c1ccccc1)c1ccccc1

> <InChI_Code_QSARr>
InChI=1S/C14H12/c1-12(13-8-4-2-5-9-13)14-10-6-3-7-11-14/h2-11H,1H2

> <InChI Key_QSARr>
ZMYIIHDQURVDRB-UHFFFAOYSA-N

> <Salt_Solvent>
?

> <WS Temperature>
25

> <WS Reference>
YALKOWSKY,SH & DANNENFELSER,RM (1992)

> <dsstox_substance_id>
DTXSID5060190

> <LogMolar>
-4.4363

$$$$
532-32-1
  -INDIGO-01081615412D

 15 15  0  0  0  0  0  0  0  0999 V2000
    2.4001   -1.3856    0.0000 O   0  0  0  0  0  0  0  0  0  0  0  0
    1.6000    0.0000    0.0000 C   0  0  0  0  0  0  0  0  0  0  0  0
    2.4001    1.3856    0.0000 O   0  0  0  0  0  0  0  0  0  0  0  0
   -0.0000   -0.0000    0.0000 C   0  0  0  0  0  0  0  0  0  0  0  0
   -0.8000    1.3856    0.0000 C   0  0  0  0  0  0  0  0  0  0  0  0
   -0.0000    2.7713    0.0000 H   0  0  0  0  0  0  0  0  0  0  0  0
   -2.4000    1.3856    0.0000 C   0  0  0  0  0  0  0  0  0  0  0  0
   -3.2001    2.7713    0.0000 H   0  0  0  0  0  0  0  0  0  0  0  0
   -3.2001   -0.0000    0.0000 C   0  0  0  0  0  0  0  0  0  0  0  0
   -4.8000   -0.0000    0.0000 H   0  0  0  0  0  0  0  0  0  0  0  0
   -2.4000   -1.3856    0.0000 C   0  0  0  0  0  0  0  0  0  0  0  0
   -3.2001   -2.7713    0.0000 H   0  0  0  0  0  0  0  0  0  0  0  0
   -0.8000   -1.3856    0.0000 C   0  0  0  0  0  0  0  0  0  0  0  0
   -0.0000   -2.7713    0.0000 H   0  0  0  0  0  0  0  0  0  0  0  0
    4.0000   -1.3856    0.0000 H   0  0  0  0  0  0  0  0  0  0  0  0
  1  2  1  0  0  0  0
  2  3  2  0  0  0  0
  2  4  1  0  0  0  0
  4  5  4  0  0  0  0
  5  6  1  0  0  0  0
  5  7  4  0  0  0  0
  7  8  1  0  0  0  0
  7  9  4  0  0  0  0
  9 10  1  0  0  0  0
  9 11  4  0  0  0  0
 11 12  1  0  0  0  0
 11 13  4  0  0  0  0
 13  4  4  0  0  0  0
 13 14  1  0  0  0  0
  1 15  1  0  0  0  0
M  END
> <CAS>
532-32-1

> <NAME>
BENZOIC ACID, SODIUM SALT

> <preferred_name>
Sodium benzoate

> <iupac>
sodium benzoate

> <SMILES>
[Na+].[O-]C(=O)c1ccccc1

> <Canonical_QSARr>
OC(=O)c1ccccc1

> <InChI_Code_QSARr>
InChI=1S/C7H6O2/c8-7(9)6-4-2-1-3-5-6/h1-5H,(H,8,9)

> <InChI Key_QSARr>
WPYMKLBDIGXBTP-UHFFFAOYSA-N

> <Salt_Solvent>
[Na+]

> <WS Temperature>
25

> <WS Reference>
BUDAVARI,S ET AL. (1989)

> <dsstox_substance_id>
DTXSID1020140

> <LogMolar>
0.5864

$$$$
533-32-4
  -INDIGO-01081615412D

 30 29  0  0  0  0  0  0  0  0999 V2000
    3.0069    2.6944    0.0000 O   0  0  0  0  0  0  0  0  0  0  0  0
    3.0069    1.0944    0.0000 C   0  0  0  0  0  0  0  0  0  0  0  0
    1.5036    0.5472    0.0000 C   0  0  0  0  0  0  0  0  0  0  0  0
    0.0000   -0.0001    0.0000 C   0  0  0  0  0  0  0  0  0  0  0  0
   -1.3857   -0.8000    0.0000 C   0  0  0  0  0  0  0  0  0  0  0  0
   -2.7713   -1.6001    0.0000 H   0  0  0  0  0  0  0  0  0  0  0  0
   -1.3857   -2.4000    0.0000 H   0  0  0  0  0  0  0  0  0  0  0  0
   -2.7713   -0.0001    0.0000 H   0  0  0  0  0  0  0  0  0  0  0  0
   -0.8000    1.3856    0.0000 C   0  0  0  0  0  0  0  0  0  0  0  0
   -1.6000    2.7713    0.0000 H   0  0  0  0  0  0  0  0  0  0  0  0
   -2.4001    1.3856    0.0000 H   0  0  0  0  0  0  0  0  0  0  0  0
    0.0000    2.7713    0.0000 H   0  0  0  0  0  0  0  0  0  0  0  0
    0.8001   -1.3856    0.0000 H   0  0  0  0  0  0  0  0  0  0  0  0
    2.0507   -0.9563    0.0000 H   0  0  0  0  0  0  0  0  0  0  0  0
    1.2256    2.1229    0.0000 H   0  0  0  0  0  0  0  0  0  0  0  0
    4.5105    0.5472    0.0000 N   0  0  0  0  0  0  0  0  0  0  0  0
    5.7362    1.5757    0.0000 C   0  0  0  0  0  0  0  0  0  0  0  0
    6.9618    2.6042    0.0000 C   0  0  0  0  0  0  0  0  0  0  0  0
    8.1876    3.6326    0.0000 H   0  0  0  0  0  0  0  0  0  0  0  0
    8.4654    2.0570    0.0000 H   0  0  0  0  0  0  0  0  0  0  0  0
    6.6841    4.1798    0.0000 H   0  0  0  0  0  0  0  0  0  0  0  0
    6.7647    0.3500    0.0000 H   0  0  0  0  0  0  0  0  0  0  0  0
    4.7078    2.8014    0.0000 H   0  0  0  0  0  0  0  0  0  0  0  0
    4.7884   -1.0285    0.0000 C   0  0  0  0  0  0  0  0  0  0  0  0
    5.0662   -2.6042    0.0000 C   0  0  0  0  0  0  0  0  0  0  0  0
    5.3441   -4.1798    0.0000 H   0  0  0  0  0  0  0  0  0  0  0  0
    6.5697   -3.1513    0.0000 H   0  0  0  0  0  0  0  0  0  0  0  0
    3.8406   -3.6326    0.0000 H   0  0  0  0  0  0  0  0  0  0  0  0
    6.3641   -0.7506    0.0000 H   0  0  0  0  0  0  0  0  0  0  0  0
    3.2127   -1.3063    0.0000 H   0  0  0  0  0  0  0  0  0  0  0  0
  1  2  2  0  0  0  0
  2  3  1  0  0  0  0
  3  4  1  0  0  0  0
  4  5  1  0  0  0  0
  5  6  1  0  0  0  0
  5  7  1  0  0  0  0
  5  8  1  0  0  0  0
  4  9  1  0  0  0  0
  9 10  1  0  0  0  0
  9 11  1  0  0  0  0
  9 12  1  0  0  0  0
  4 13  1  0  0  0  0
  3 14  1  0  0  0  0
  3 15  1  0  0  0  0
  2 16  1  0  0  0  0
 16 17  1  0  0  0  0
 17 18  1  0  0  0  0
 18 19  1  0  0  0  0
 18 20  1  0  0  0  0
 18 21  1  0  0  0  0
 17 22  1  0  0  0  0
 17 23  1  0  0  0  0
 16 24  1  0  0  0  0
 24 25  1  0  0  0  0
 25 26  1  0  0  0  0
 25 27  1  0  0  0  0
 25 28  1  0  0  0  0
 24 29  1  0  0  0  0
 24 30  1  0  0  0  0
M  END
> <CAS>
533-32-4

> <NAME>
Isovaleryl diethylamide

> <preferred_name>
Isovaleryl diethylamide

> <iupac>
N,N-diethyl-3-methylbutanamide

> <SMILES>
CC(C)CC(=O)N(CC)CC

> <Canonical_QSARr>
CC(C)CC(=O)N(CC)CC

> <InChI_Code_QSARr>
InChI=1S/C9H19NO/c1-5-10(6-2)9(11)7-8(3)4/h8H,5-7H2,1-4H3

> <InChI Key_QSARr>
QZMQDHNCNUGQSO-UHFFFAOYSA-N

> <Salt_Solvent>
?

> <WS Temperature>


> <WS Reference>
MERCK INDEX (1996)

> <dsstox_substance_id>
DTXSID50201444

> <LogMolar>
-0.5946

$$$$
534-15-6
  -INDIGO-01081615412D

 16 15  0  0  0  0  0  0  0  0999 V2000
    0.0000   -0.0000    0.0000 C   0  0  0  0  0  0  0  0  0  0  0  0
   -1.3856    0.8000    0.0000 O   0  0  0  0  0  0  0  0  0  0  0  0
   -2.7713   -0.0000    0.0000 C   0  0  0  0  0  0  0  0  0  0  0  0
   -4.1569   -0.8000    0.0000 H   0  0  0  0  0  0  0  0  0  0  0  0
   -4.1569    0.8000    0.0000 H   0  0  0  0  0  0  0  0  0  0  0  0
   -2.7713   -1.6000    0.0000 H   0  0  0  0  0  0  0  0  0  0  0  0
    0.8000    1.3857    0.0000 O   0  0  0  0  0  0  0  0  0  0  0  0
    0.0000    2.7713    0.0000 C   0  0  0  0  0  0  0  0  0  0  0  0
    0.8000    4.1569    0.0000 H   0  0  0  0  0  0  0  0  0  0  0  0
   -0.8000    4.1569    0.0000 H   0  0  0  0  0  0  0  0  0  0  0  0
   -1.6000    2.7713    0.0000 H   0  0  0  0  0  0  0  0  0  0  0  0
    1.3856   -0.8000    0.0000 C   0  0  0  0  0  0  0  0  0  0  0  0
    2.7713   -1.6000    0.0000 H   0  0  0  0  0  0  0  0  0  0  0  0
    1.3856   -2.4000    0.0000 H   0  0  0  0  0  0  0  0  0  0  0  0
    2.7713   -0.0000    0.0000 H   0  0  0  0  0  0  0  0  0  0  0  0
   -0.8000   -1.3857    0.0000 H   0  0  0  0  0  0  0  0  0  0  0  0
  1  2  1  0  0  0  0
  2  3  1  0  0  0  0
  3  4  1  0  0  0  0
  3  5  1  0  0  0  0
  3  6  1  0  0  0  0
  1  7  1  0  0  0  0
  7  8  1  0  0  0  0
  8  9  1  0  0  0  0
  8 10  1  0  0  0  0
  8 11  1  0  0  0  0
  1 12  1  0  0  0  0
 12 13  1  0  0  0  0
 12 14  1  0  0  0  0
 12 15  1  0  0  0  0
  1 16  1  0  0  0  0
M  END
> <CAS>
534-15-6

> <NAME>
1,1-DIMETHOXYETHANE

> <preferred_name>
1,1-Dimethoxyethane

> <iupac>
1,1-dimethoxyethane

> <SMILES>
CC(OC)OC

> <Canonical_QSARr>
CC(OC)OC

> <InChI_Code_QSARr>
InChI=1S/C4H10O2/c1-4(5-2)6-3/h4H,1-3H3

> <InChI Key_QSARr>
SPEUIVXLLWOEMJ-UHFFFAOYSA-N

> <Salt_Solvent>
?

> <WS Temperature>
25

> <WS Reference>
MERCK INDEX (1989)

> <dsstox_substance_id>
DTXSID7027178

> <LogMolar>
1.0452

$$$$
535-77-3
  -INDIGO-01081615412D

 24 24  0  0  0  0  0  0  0  0999 V2000
    1.3857   -0.7999    0.0000 C   0  0  0  0  0  0  0  0  0  0  0  0
    0.0001    0.0000    0.0000 C   0  0  0  0  0  0  0  0  0  0  0  0
   -1.0284    1.2256    0.0000 C   0  0  0  0  0  0  0  0  0  0  0  0
   -2.0570    2.4514    0.0000 H   0  0  0  0  0  0  0  0  0  0  0  0
   -0.4812    2.7292    0.0000 H   0  0  0  0  0  0  0  0  0  0  0  0
   -2.6042    0.9478    0.0000 H   0  0  0  0  0  0  0  0  0  0  0  0
   -0.7999   -1.3856    0.0000 C   0  0  0  0  0  0  0  0  0  0  0  0
   -1.5999   -2.7713    0.0000 H   0  0  0  0  0  0  0  0  0  0  0  0
   -2.3999   -1.3856    0.0000 H   0  0  0  0  0  0  0  0  0  0  0  0
   -1.5999    0.0000    0.0000 H   0  0  0  0  0  0  0  0  0  0  0  0
    0.8001    1.3857    0.0000 H   0  0  0  0  0  0  0  0  0  0  0  0
    1.3857   -2.4000    0.0000 C   0  0  0  0  0  0  0  0  0  0  0  0
    0.0001   -3.2000    0.0000 H   0  0  0  0  0  0  0  0  0  0  0  0
    2.7713   -3.2000    0.0000 C   0  0  0  0  0  0  0  0  0  0  0  0
    2.7713   -4.8000    0.0000 H   0  0  0  0  0  0  0  0  0  0  0  0
    4.1569   -2.4000    0.0000 C   0  0  0  0  0  0  0  0  0  0  0  0
    5.5426   -3.2000    0.0000 H   0  0  0  0  0  0  0  0  0  0  0  0
    4.1569   -0.7999    0.0000 C   0  0  0  0  0  0  0  0  0  0  0  0
    5.5426    0.0000    0.0000 C   0  0  0  0  0  0  0  0  0  0  0  0
    6.9282    0.8000    0.0000 H   0  0  0  0  0  0  0  0  0  0  0  0
    6.9282   -0.7999    0.0000 H   0  0  0  0  0  0  0  0  0  0  0  0
    5.5426    1.5999    0.0000 H   0  0  0  0  0  0  0  0  0  0  0  0
    2.7713    0.0000    0.0000 C   0  0  0  0  0  0  0  0  0  0  0  0
    2.7713    1.5999    0.0000 H   0  0  0  0  0  0  0  0  0  0  0  0
  1  2  1  0  0  0  0
  2  3  1  0  0  0  0
  3  4  1  0  0  0  0
  3  5  1  0  0  0  0
  3  6  1  0  0  0  0
  2  7  1  0  0  0  0
  7  8  1  0  0  0  0
  7  9  1  0  0  0  0
  7 10  1  0  0  0  0
  2 11  1  0  0  0  0
  1 12  4  0  0  0  0
 12 13  1  0  0  0  0
 12 14  4  0  0  0  0
 14 15  1  0  0  0  0
 14 16  4  0  0  0  0
 16 17  1  0  0  0  0
 16 18  4  0  0  0  0
 18 19  1  0  0  0  0
 19 20  1  0  0  0  0
 19 21  1  0  0  0  0
 19 22  1  0  0  0  0
 18 23  4  0  0  0  0
 23  1  4  0  0  0  0
 23 24  1  0  0  0  0
M  END
> <CAS>
535-77-3

> <NAME>
M-CYMENE

> <preferred_name>
m-Cymene

> <iupac>
1-methyl-3-propan-2-ylbenzene

> <SMILES>
Cc1cccc(c1)C(C)C

> <Canonical_QSARr>
Cc1cccc(c1)C(C)C

> <InChI_Code_QSARr>
InChI=1S/C10H14/c1-8(2)10-6-4-5-9(3)7-10/h4-8H,1-3H3

> <InChI Key_QSARr>
XCYJPXQACVEIOS-UHFFFAOYSA-N

> <Salt_Solvent>
?

> <WS Temperature>
25

> <WS Reference>
LUN,R ET AL. (1997)

> <dsstox_substance_id>
DTXSID2060206

> <LogMolar>
-3.4994

$$$$
536-08-3
  -INDIGO-01081615412D

 33 34  0  0  0  0  0  0  0  0999 V2000
   -4.0001   -1.3857    0.0000 C   0  0  0  0  0  0  0  0  0  0  0  0
   -4.8001    0.0001    0.0000 C   0  0  0  0  0  0  0  0  0  0  0  0
   -4.0001    1.3857    0.0000 H   0  0  0  0  0  0  0  0  0  0  0  0
   -6.4000    0.0001    0.0000 C   0  0  0  0  0  0  0  0  0  0  0  0
   -7.1999    1.3857    0.0000 C   0  0  0  0  0  0  0  0  0  0  0  0
   -8.8000    1.3857    0.0000 O   0  0  0  0  0  0  0  0  0  0  0  0
   -9.6000    2.7713    0.0000 H   0  0  0  0  0  0  0  0  0  0  0  0
   -6.4000    2.7713    0.0000 O   0  0  0  0  0  0  0  0  0  0  0  0
   -7.1999   -1.3857    0.0000 C   0  0  0  0  0  0  0  0  0  0  0  0
   -8.8000   -1.3857    0.0000 H   0  0  0  0  0  0  0  0  0  0  0  0
   -6.4000   -2.7713    0.0000 C   0  0  0  0  0  0  0  0  0  0  0  0
   -7.1999   -4.1569    0.0000 O   0  0  0  0  0  0  0  0  0  0  0  0
   -8.8000   -4.1569    0.0000 H   0  0  0  0  0  0  0  0  0  0  0  0
   -4.8001   -2.7713    0.0000 C   0  0  0  0  0  0  0  0  0  0  0  0
   -4.0001   -4.1569    0.0000 O   0  0  0  0  0  0  0  0  0  0  0  0
   -4.8001   -5.5426    0.0000 H   0  0  0  0  0  0  0  0  0  0  0  0
   -2.4000   -1.3857    0.0000 O   0  0  0  0  0  0  0  0  0  0  0  0
   -1.6000    0.0001    0.0000 C   0  0  0  0  0  0  0  0  0  0  0  0
   -2.4000    1.3857    0.0000 O   0  0  0  0  0  0  0  0  0  0  0  0
    0.0001    0.0001    0.0000 C   0  0  0  0  0  0  0  0  0  0  0  0
    0.8001   -1.3857    0.0000 C   0  0  0  0  0  0  0  0  0  0  0  0
    0.0001   -2.7713    0.0000 H   0  0  0  0  0  0  0  0  0  0  0  0
    2.4000   -1.3857    0.0000 C   0  0  0  0  0  0  0  0  0  0  0  0
    3.1999   -2.7713    0.0000 O   0  0  0  0  0  0  0  0  0  0  0  0
    4.8001   -2.7713    0.0000 H   0  0  0  0  0  0  0  0  0  0  0  0
    3.1999    0.0001    0.0000 C   0  0  0  0  0  0  0  0  0  0  0  0
    4.8001    0.0001    0.0000 O   0  0  0  0  0  0  0  0  0  0  0  0
    5.6000    1.3857    0.0000 H   0  0  0  0  0  0  0  0  0  0  0  0
    2.4000    1.3857    0.0000 C   0  0  0  0  0  0  0  0  0  0  0  0
    3.1999    2.7713    0.0000 O   0  0  0  0  0  0  0  0  0  0  0  0
    2.4000    4.1569    0.0000 H   0  0  0  0  0  0  0  0  0  0  0  0
    0.8001    1.3857    0.0000 C   0  0  0  0  0  0  0  0  0  0  0  0
    0.0001    2.7713    0.0000 H   0  0  0  0  0  0  0  0  0  0  0  0
  1  2  4  0  0  0  0
  2  3  1  0  0  0  0
  2  4  4  0  0  0  0
  4  5  1  0  0  0  0
  5  6  1  0  0  0  0
  6  7  1  0  0  0  0
  5  8  2  0  0  0  0
  4  9  4  0  0  0  0
  9 10  1  0  0  0  0
  9 11  4  0  0  0  0
 11 12  1  0  0  0  0
 12 13  1  0  0  0  0
 11 14  4  0  0  0  0
 14  1  4  0  0  0  0
 14 15  1  0  0  0  0
 15 16  1  0  0  0  0
  1 17  1  0  0  0  0
 17 18  1  0  0  0  0
 18 19  2  0  0  0  0
 18 20  1  0  0  0  0
 20 21  4  0  0  0  0
 21 22  1  0  0  0  0
 21 23  4  0  0  0  0
 23 24  1  0  0  0  0
 24 25  1  0  0  0  0
 23 26  4  0  0  0  0
 26 27  1  0  0  0  0
 27 28  1  0  0  0  0
 26 29  4  0  0  0  0
 29 30  1  0  0  0  0
 30 31  1  0  0  0  0
 29 32  4  0  0  0  0
 32 20  4  0  0  0  0
 32 33  1  0  0  0  0
M  END
> <CAS>
536-08-3

> <NAME>
Digallic acid

> <preferred_name>


> <iupac>


> <SMILES>
OC(=O)c1cc(OC(=O)c2cc(O)c(O)c(O)c2)c(O)c(O)c1

> <Canonical_QSARr>
OC(=O)c1cc(OC(=O)c2cc(O)c(O)c(O)c2)c(O)c(O)c1

> <InChI_Code_QSARr>
InChI=1S/C14H10O9/c15-7-2-6(3-8(16)11(7)18)14(22)23-10-4-5(13(20)21)1-9(17)12(10)19/h1-4,15-19H,(H,20,21)

> <InChI Key_QSARr>
COVFEVWNJUOYRL-UHFFFAOYSA-N

> <Salt_Solvent>
?

> <WS Temperature>
25

> <WS Reference>
YALKOWSKY,SH & DANNENFELSER,RM (1992)

> <dsstox_substance_id>


> <LogMolar>
-2.8092

$$$$
539-15-1
  -INDIGO-01081615412D

 27 27  0  0  0  0  0  0  0  0999 V2000
    1.6000    0.0000    0.0000 N   0  0  0  0  0  0  0  0  0  0  0  0
    2.4000   -1.3856    0.0000 C   0  0  0  0  0  0  0  0  0  0  0  0
    3.2000   -2.7713    0.0000 H   0  0  0  0  0  0  0  0  0  0  0  0
    4.0000   -1.3856    0.0000 H   0  0  0  0  0  0  0  0  0  0  0  0
    1.6000   -2.7713    0.0000 H   0  0  0  0  0  0  0  0  0  0  0  0
    2.4000    1.3856    0.0000 C   0  0  0  0  0  0  0  0  0  0  0  0
    3.2000    2.7713    0.0000 H   0  0  0  0  0  0  0  0  0  0  0  0
    4.0000    1.3856    0.0000 H   0  0  0  0  0  0  0  0  0  0  0  0
    1.6000    2.7713    0.0000 H   0  0  0  0  0  0  0  0  0  0  0  0
   -0.0001   -0.0000    0.0000 C   0  0  0  0  0  0  0  0  0  0  0  0
   -1.6001   -0.0000    0.0000 C   0  0  0  0  0  0  0  0  0  0  0  0
   -3.1999   -0.0000    0.0000 C   0  0  0  0  0  0  0  0  0  0  0  0
   -3.9999    1.3856    0.0000 C   0  0  0  0  0  0  0  0  0  0  0  0
   -3.1999    2.7713    0.0000 H   0  0  0  0  0  0  0  0  0  0  0  0
   -5.6000    1.3856    0.0000 C   0  0  0  0  0  0  0  0  0  0  0  0
   -6.4000    2.7713    0.0000 H   0  0  0  0  0  0  0  0  0  0  0  0
   -6.4000   -0.0000    0.0000 C   0  0  0  0  0  0  0  0  0  0  0  0
   -8.0000   -0.0000    0.0000 O   0  0  0  0  0  0  0  0  0  0  0  0
   -8.8000    1.3856    0.0000 H   0  0  0  0  0  0  0  0  0  0  0  0
   -5.6000   -1.3856    0.0000 C   0  0  0  0  0  0  0  0  0  0  0  0
   -6.4000   -2.7713    0.0000 H   0  0  0  0  0  0  0  0  0  0  0  0
   -3.9999   -1.3856    0.0000 C   0  0  0  0  0  0  0  0  0  0  0  0
   -3.1999   -2.7713    0.0000 H   0  0  0  0  0  0  0  0  0  0  0  0
   -1.6001   -1.6000    0.0000 H   0  0  0  0  0  0  0  0  0  0  0  0
   -1.6001    1.6000    0.0000 H   0  0  0  0  0  0  0  0  0  0  0  0
   -0.0001   -1.6000    0.0000 H   0  0  0  0  0  0  0  0  0  0  0  0
   -0.0001    1.6000    0.0000 H   0  0  0  0  0  0  0  0  0  0  0  0
  1  2  1  0  0  0  0
  2  3  1  0  0  0  0
  2  4  1  0  0  0  0
  2  5  1  0  0  0  0
  1  6  1  0  0  0  0
  6  7  1  0  0  0  0
  6  8  1  0  0  0  0
  6  9  1  0  0  0  0
  1 10  1  0  0  0  0
 10 11  1  0  0  0  0
 11 12  1  0  0  0  0
 12 13  4  0  0  0  0
 13 14  1  0  0  0  0
 13 15  4  0  0  0  0
 15 16  1  0  0  0  0
 15 17  4  0  0  0  0
 17 18  1  0  0  0  0
 18 19  1  0  0  0  0
 17 20  4  0  0  0  0
 20 21  1  0  0  0  0
 20 22  4  0  0  0  0
 22 12  4  0  0  0  0
 22 23  1  0  0  0  0
 11 24  1  0  0  0  0
 11 25  1  0  0  0  0
 10 26  1  0  0  0  0
 10 27  1  0  0  0  0
M  END
> <CAS>
539-15-1

> <NAME>
Hordenine

> <preferred_name>
Hordenine

> <iupac>
4-[2-(dimethylamino)ethyl]phenol

> <SMILES>
CN(C)CCc1ccc(O)cc1

> <Canonical_QSARr>
CN(C)CCc1ccc(O)cc1

> <InChI_Code_QSARr>
InChI=1S/C10H15NO/c1-11(2)8-7-9-3-5-10(12)6-4-9/h3-6,12H,7-8H2,1-2H3

> <InChI Key_QSARr>
KUBCEEMXQZUPDQ-UHFFFAOYSA-N

> <Salt_Solvent>
?

> <WS Temperature>


> <WS Reference>
MERCK INDEX (1996)

> <dsstox_substance_id>
DTXSID2046096

> <LogMolar>
-1.373

$$$$
540-42-1
  -INDIGO-01081615412D

 23 22  0  0  0  0  0  0  0  0999 V2000
    4.2326    0.0660    0.0000 C   0  0  0  0  0  0  0  0  0  0  0  0
    3.9549   -1.5097    0.0000 O   0  0  0  0  0  0  0  0  0  0  0  0
    5.7361    0.6132    0.0000 C   0  0  0  0  0  0  0  0  0  0  0  0
    7.2397    1.1604    0.0000 C   0  0  0  0  0  0  0  0  0  0  0  0
    8.7432    1.7077    0.0000 H   0  0  0  0  0  0  0  0  0  0  0  0
    8.4654    0.1320    0.0000 H   0  0  0  0  0  0  0  0  0  0  0  0
    7.5175    2.7362    0.0000 H   0  0  0  0  0  0  0  0  0  0  0  0
    6.2834   -0.8902    0.0000 H   0  0  0  0  0  0  0  0  0  0  0  0
    5.1890    2.1167    0.0000 H   0  0  0  0  0  0  0  0  0  0  0  0
    3.0070    1.0945    0.0000 O   0  0  0  0  0  0  0  0  0  0  0  0
    1.5035    0.5472    0.0000 C   0  0  0  0  0  0  0  0  0  0  0  0
    0.0000    0.0000    0.0000 C   0  0  0  0  0  0  0  0  0  0  0  0
   -1.3857   -0.8000    0.0000 C   0  0  0  0  0  0  0  0  0  0  0  0
   -2.7713   -1.6000    0.0000 H   0  0  0  0  0  0  0  0  0  0  0  0
   -1.3857   -2.4000    0.0000 H   0  0  0  0  0  0  0  0  0  0  0  0
   -2.7713    0.0000    0.0000 H   0  0  0  0  0  0  0  0  0  0  0  0
   -0.7999    1.3856    0.0000 C   0  0  0  0  0  0  0  0  0  0  0  0
   -1.6001    2.7713    0.0000 H   0  0  0  0  0  0  0  0  0  0  0  0
   -2.4000    1.3856    0.0000 H   0  0  0  0  0  0  0  0  0  0  0  0
    0.0000    2.7713    0.0000 H   0  0  0  0  0  0  0  0  0  0  0  0
    0.8000   -1.3856    0.0000 H   0  0  0  0  0  0  0  0  0  0  0  0
    2.0508   -0.9563    0.0000 H   0  0  0  0  0  0  0  0  0  0  0  0
    1.2257    2.1229    0.0000 H   0  0  0  0  0  0  0  0  0  0  0  0
  1  2  2  0  0  0  0
  1  3  1  0  0  0  0
  3  4  1  0  0  0  0
  4  5  1  0  0  0  0
  4  6  1  0  0  0  0
  4  7  1  0  0  0  0
  3  8  1  0  0  0  0
  3  9  1  0  0  0  0
  1 10  1  0  0  0  0
 10 11  1  0  0  0  0
 11 12  1  0  0  0  0
 12 13  1  0  0  0  0
 13 14  1  0  0  0  0
 13 15  1  0  0  0  0
 13 16  1  0  0  0  0
 12 17  1  0  0  0  0
 17 18  1  0  0  0  0
 17 19  1  0  0  0  0
 17 20  1  0  0  0  0
 12 21  1  0  0  0  0
 11 22  1  0  0  0  0
 11 23  1  0  0  0  0
M  END
> <CAS>
540-42-1

> <NAME>
2-METHYLPROPYL PROPANOATE

> <preferred_name>
Propanoic acid, 2-methylpropyl ester

> <iupac>
2-METHYLPROPYL PROPANOATE

> <SMILES>
CCC(=O)OCC(C)C

> <Canonical_QSARr>
CCC(=O)OCC(C)C

> <InChI_Code_QSARr>
InChI=1S/C7H14O2/c1-4-7(8)9-5-6(2)3/h6H,4-5H2,1-3H3

> <InChI Key_QSARr>
FZXRXKLUIMKDEL-UHFFFAOYSA-N

> <Salt_Solvent>
?

> <WS Temperature>
25

> <WS Reference>
KIRK-OTHMER; 1st ed, v5:826 (1950)

> <dsstox_substance_id>
DTXSID8060240

> <LogMolar>
-1.8841

$$$$
540-54-5
  -INDIGO-01081615412D

 11 10  0  0  0  0  0  0  0  0999 V2000
    1.6000    0.0000    0.0000 C   0  0  0  0  0  0  0  0  0  0  0  0
    3.2000    0.0000    0.0000 Cl  0  0  0  0  0  0  0  0  0  0  0  0
    0.0000    0.0000    0.0000 C   0  0  0  0  0  0  0  0  0  0  0  0
   -1.6000   -0.0000    0.0000 C   0  0  0  0  0  0  0  0  0  0  0  0
   -3.2000   -0.0000    0.0000 H   0  0  0  0  0  0  0  0  0  0  0  0
   -2.4000   -1.3856    0.0000 H   0  0  0  0  0  0  0  0  0  0  0  0
   -2.4000    1.3856    0.0000 H   0  0  0  0  0  0  0  0  0  0  0  0
    0.0000    1.6000    0.0000 H   0  0  0  0  0  0  0  0  0  0  0  0
    0.0000   -1.6000    0.0000 H   0  0  0  0  0  0  0  0  0  0  0  0
    2.4000   -1.3856    0.0000 H   0  0  0  0  0  0  0  0  0  0  0  0
    2.4000    1.3856    0.0000 H   0  0  0  0  0  0  0  0  0  0  0  0
  1  2  1  0  0  0  0
  1  3  1  0  0  0  0
  3  4  1  0  0  0  0
  4  5  1  0  0  0  0
  4  6  1  0  0  0  0
  4  7  1  0  0  0  0
  3  8  1  0  0  0  0
  3  9  1  0  0  0  0
  1 10  1  0  0  0  0
  1 11  1  0  0  0  0
M  END
> <CAS>
540-54-5

> <NAME>
1-CHLOROPROPANE

> <preferred_name>
1-Chloropropane

> <iupac>
1-chloropropane

> <SMILES>
CCCCl

> <Canonical_QSARr>
CCCCl

> <InChI_Code_QSARr>
InChI=1S/C3H7Cl/c1-2-3-4/h2-3H2,1H3

> <InChI Key_QSARr>
SNMVRZFUUCLYTO-UHFFFAOYSA-N

> <Salt_Solvent>
?

> <WS Temperature>
25

> <WS Reference>
YALKOWSKY,SH & DANNENFELSER,RM (1992)

> <dsstox_substance_id>
DTXSID3051462

> <LogMolar>
-1.4605

$$$$
540-84-1
  -INDIGO-01081615412D

 26 25  0  0  0  0  0  0  0  0999 V2000
   -0.0000    0.0000    0.0000 C   0  0  0  0  0  0  0  0  0  0  0  0
   -1.6000   -0.0000    0.0000 C   0  0  0  0  0  0  0  0  0  0  0  0
   -3.2000   -0.0000    0.0000 H   0  0  0  0  0  0  0  0  0  0  0  0
   -2.4000    1.3856    0.0000 H   0  0  0  0  0  0  0  0  0  0  0  0
   -2.4000   -1.3856    0.0000 H   0  0  0  0  0  0  0  0  0  0  0  0
   -0.0000    1.6000    0.0000 C   0  0  0  0  0  0  0  0  0  0  0  0
   -0.0000    3.2000    0.0000 H   0  0  0  0  0  0  0  0  0  0  0  0
   -1.3856    2.4000    0.0000 H   0  0  0  0  0  0  0  0  0  0  0  0
    1.2257    2.6285    0.0000 H   0  0  0  0  0  0  0  0  0  0  0  0
   -0.0000   -1.6000    0.0000 C   0  0  0  0  0  0  0  0  0  0  0  0
   -0.0000   -3.2000    0.0000 H   0  0  0  0  0  0  0  0  0  0  0  0
   -1.3856   -2.4000    0.0000 H   0  0  0  0  0  0  0  0  0  0  0  0
    1.2257   -2.6285    0.0000 H   0  0  0  0  0  0  0  0  0  0  0  0
    1.6000    0.0000    0.0000 C   0  0  0  0  0  0  0  0  0  0  0  0
    3.1999    0.0000    0.0000 C   0  0  0  0  0  0  0  0  0  0  0  0
    4.7757   -0.2779    0.0000 C   0  0  0  0  0  0  0  0  0  0  0  0
    6.3514   -0.5557    0.0000 H   0  0  0  0  0  0  0  0  0  0  0  0
    5.3229   -1.7813    0.0000 H   0  0  0  0  0  0  0  0  0  0  0  0
    5.8041    0.9478    0.0000 H   0  0  0  0  0  0  0  0  0  0  0  0
    3.1999    1.6000    0.0000 C   0  0  0  0  0  0  0  0  0  0  0  0
    3.1999    3.2000    0.0000 H   0  0  0  0  0  0  0  0  0  0  0  0
    4.5857    2.4000    0.0000 H   0  0  0  0  0  0  0  0  0  0  0  0
    4.5857    0.8000    0.0000 H   0  0  0  0  0  0  0  0  0  0  0  0
    3.1999   -1.6000    0.0000 H   0  0  0  0  0  0  0  0  0  0  0  0
    1.6000    1.6000    0.0000 H   0  0  0  0  0  0  0  0  0  0  0  0
    1.8779   -1.5757    0.0000 H   0  0  0  0  0  0  0  0  0  0  0  0
  1  2  1  0  0  0  0
  2  3  1  0  0  0  0
  2  4  1  0  0  0  0
  2  5  1  0  0  0  0
  1  6  1  0  0  0  0
  6  7  1  0  0  0  0
  6  8  1  0  0  0  0
  6  9  1  0  0  0  0
  1 10  1  0  0  0  0
 10 11  1  0  0  0  0
 10 12  1  0  0  0  0
 10 13  1  0  0  0  0
  1 14  1  0  0  0  0
 14 15  1  0  0  0  0
 15 16  1  0  0  0  0
 16 17  1  0  0  0  0
 16 18  1  0  0  0  0
 16 19  1  0  0  0  0
 15 20  1  0  0  0  0
 20 21  1  0  0  0  0
 20 22  1  0  0  0  0
 20 23  1  0  0  0  0
 15 24  1  0  0  0  0
 14 25  1  0  0  0  0
 14 26  1  0  0  0  0
M  END
> <CAS>
540-84-1

> <NAME>
2,2,4-TRIMETHYLPENTANE

> <preferred_name>
2,2,4-Trimethylpentane

> <iupac>
2,2,4-trimethylpentane

> <SMILES>
CC(C)CC(C)(C)C

> <Canonical_QSARr>
CC(C)CC(C)(C)C

> <InChI_Code_QSARr>
InChI=1S/C8H18/c1-7(2)6-8(3,4)5/h7H,6H2,1-5H3

> <InChI Key_QSARr>
NHTMVDHEPJAVLT-UHFFFAOYSA-N

> <Salt_Solvent>
?

> <WS Temperature>
25

> <WS Reference>
YALKOWSKY,SH & DANNENFELSER,RM (1992)

> <dsstox_substance_id>
DTXSID7024370

> <LogMolar>
-4.7082

$$$$
541-25-3
  -INDIGO-01081615412D

  8  7  0  0  0  0  0  0  0  0999 V2000
   -0.0000    0.0000    0.0000 C   0  0  0  0  0  0  0  0  0  0  0  0
   -1.3856    0.8000    0.0000 C   0  0  0  0  0  0  0  0  0  0  0  0
   -2.7713    0.0000    0.0000 Cl  0  0  0  0  0  0  0  0  0  0  0  0
   -1.3856    2.4000    0.0000 H   0  0  0  0  0  0  0  0  0  0  0  0
    1.3856    0.8000    0.0000 As  0  0  0  0  0  0  0  0  0  0  0  0
    2.7713    0.0000    0.0000 Cl  0  0  0  0  0  0  0  0  0  0  0  0
    1.3856    2.4000    0.0000 Cl  0  0  0  0  0  0  0  0  0  0  0  0
    0.0000   -1.6000    0.0000 H   0  0  0  0  0  0  0  0  0  0  0  0
  1  2  2  0  0  0  0
  2  3  1  0  0  0  0
  2  4  1  0  0  0  0
  1  5  1  0  0  0  0
  5  6  1  0  0  0  0
  5  7  1  0  0  0  0
  1  8  1  0  0  0  0
M  END
> <CAS>
541-25-3

> <NAME>
DICHLORO(2-CHLOROVINYL)ARSINE (TRANS)

> <preferred_name>
Lewisite

> <iupac>


> <SMILES>
ClC=C[As](Cl)Cl

> <Canonical_QSARr>
ClC=C[As](Cl)Cl

> <InChI_Code_QSARr>
InChI=1S/C2H2AsCl3/c4-2-1-3(5)6/h1-2H/b2-1+

> <InChI Key_QSARr>
GIKLTQKNOXNBNY-OWOJBTEDSA-N

> <Salt_Solvent>
?

> <WS Temperature>


> <WS Reference>
GOLDMAN,M & DACRE,JC (1989)

> <dsstox_substance_id>
DTXSID3060245

> <LogMolar>
-2.6177

$$$$
541-50-4
  -INDIGO-01081615412D

 13 12  0  0  0  0  0  0  0  0999 V2000
    2.4000   -1.3856    0.0000 O   0  0  0  0  0  0  0  0  0  0  0  0
    1.6001   -0.0000    0.0000 C   0  0  0  0  0  0  0  0  0  0  0  0
    2.4000    1.3856    0.0000 C   0  0  0  0  0  0  0  0  0  0  0  0
    3.2001    2.7713    0.0000 H   0  0  0  0  0  0  0  0  0  0  0  0
    4.0000    1.3856    0.0000 H   0  0  0  0  0  0  0  0  0  0  0  0
    1.5999    2.7713    0.0000 H   0  0  0  0  0  0  0  0  0  0  0  0
   -0.0001   -0.0000    0.0000 C   0  0  0  0  0  0  0  0  0  0  0  0
   -1.6001   -0.0000    0.0000 C   0  0  0  0  0  0  0  0  0  0  0  0
   -2.4000    1.3856    0.0000 O   0  0  0  0  0  0  0  0  0  0  0  0
   -2.4000   -1.3856    0.0000 O   0  0  0  0  0  0  0  0  0  0  0  0
   -4.0000   -1.3856    0.0000 H   0  0  0  0  0  0  0  0  0  0  0  0
   -0.0001    1.6000    0.0000 H   0  0  0  0  0  0  0  0  0  0  0  0
   -0.0001   -1.6000    0.0000 H   0  0  0  0  0  0  0  0  0  0  0  0
  1  2  2  0  0  0  0
  2  3  1  0  0  0  0
  3  4  1  0  0  0  0
  3  5  1  0  0  0  0
  3  6  1  0  0  0  0
  2  7  1  0  0  0  0
  7  8  1  0  0  0  0
  8  9  2  0  0  0  0
  8 10  1  0  0  0  0
 10 11  1  0  0  0  0
  7 12  1  0  0  0  0
  7 13  1  0  0  0  0
M  END
> <CAS>
541-50-4

> <NAME>
ACETOACETIC ACID

> <preferred_name>
Acetoacetic acid

> <iupac>
3-oxobutanoic acid

> <SMILES>
CC(=O)CC(O)=O

> <Canonical_QSARr>
CC(=O)CC(O)=O

> <InChI_Code_QSARr>
InChI=1S/C4H6O3/c1-3(5)2-4(6)7/h2H2,1H3,(H,6,7)

> <InChI Key_QSARr>
WDJHALXBUFZDSR-UHFFFAOYSA-N

> <Salt_Solvent>
?

> <WS Temperature>
20

> <WS Reference>
YALKOWSKY,SH & DANNENFELSER,RM (1992)

> <dsstox_substance_id>
DTXSID00202441

> <LogMolar>
0.991

$$$$
542-55-2
  -INDIGO-01081615412D

 17 16  0  0  0  0  0  0  0  0999 V2000
    1.5036    0.5472    0.0000 C   0  0  0  0  0  0  0  0  0  0  0  0
    3.0071    1.0945    0.0000 O   0  0  0  0  0  0  0  0  0  0  0  0
    4.2327    0.0660    0.0000 C   0  0  0  0  0  0  0  0  0  0  0  0
    5.7362    0.6132    0.0000 O   0  0  0  0  0  0  0  0  0  0  0  0
    3.9549   -1.5097    0.0000 H   0  0  0  0  0  0  0  0  0  0  0  0
    0.0000    0.0000    0.0000 C   0  0  0  0  0  0  0  0  0  0  0  0
   -1.3856   -0.8000    0.0000 C   0  0  0  0  0  0  0  0  0  0  0  0
   -2.7713   -1.6000    0.0000 H   0  0  0  0  0  0  0  0  0  0  0  0
   -1.3856   -2.4000    0.0000 H   0  0  0  0  0  0  0  0  0  0  0  0
   -2.7713    0.0000    0.0000 H   0  0  0  0  0  0  0  0  0  0  0  0
   -0.8000    1.3856    0.0000 C   0  0  0  0  0  0  0  0  0  0  0  0
   -1.6000    2.7713    0.0000 H   0  0  0  0  0  0  0  0  0  0  0  0
   -2.4000    1.3856    0.0000 H   0  0  0  0  0  0  0  0  0  0  0  0
    0.0000    2.7713    0.0000 H   0  0  0  0  0  0  0  0  0  0  0  0
    0.8000   -1.3856    0.0000 H   0  0  0  0  0  0  0  0  0  0  0  0
    2.0507   -0.9563    0.0000 H   0  0  0  0  0  0  0  0  0  0  0  0
    1.2256    2.1229    0.0000 H   0  0  0  0  0  0  0  0  0  0  0  0
  1  2  1  0  0  0  0
  2  3  1  0  0  0  0
  3  4  2  0  0  0  0
  3  5  1  0  0  0  0
  1  6  1  0  0  0  0
  6  7  1  0  0  0  0
  7  8  1  0  0  0  0
  7  9  1  0  0  0  0
  7 10  1  0  0  0  0
  6 11  1  0  0  0  0
 11 12  1  0  0  0  0
 11 13  1  0  0  0  0
 11 14  1  0  0  0  0
  6 15  1  0  0  0  0
  1 16  1  0  0  0  0
  1 17  1  0  0  0  0
M  END
> <CAS>
542-55-2

> <NAME>
ISOBUTYL FORMATE

> <preferred_name>
Formic acid, 2-methylpropyl ester

> <iupac>
2-Methylpropyl formate

> <SMILES>
CC(C)COC=O

> <Canonical_QSARr>
CC(C)COC=O

> <InChI_Code_QSARr>
InChI=1S/C5H10O2/c1-5(2)3-7-4-6/h4-5H,3H2,1-2H3

> <InChI Key_QSARr>
AVMSWPWPYJVYKY-UHFFFAOYSA-N

> <Salt_Solvent>
?

> <WS Temperature>
25

> <WS Reference>
SUZUKI,T (1991)

> <dsstox_substance_id>
DTXSID7060257

> <LogMolar>
-1.0006

$$$$
542-92-7
  -INDIGO-01081615412D

 11 11  0  0  0  0  0  0  0  0999 V2000
    0.4944    1.5217    0.0000 C   0  0  0  0  0  0  0  0  0  0  0  0
    0.0000   -0.0000    0.0000 C   0  0  0  0  0  0  0  0  0  0  0  0
   -1.4617    0.6508    0.0000 H   0  0  0  0  0  0  0  0  0  0  0  0
   -0.8000   -1.3856    0.0000 H   0  0  0  0  0  0  0  0  0  0  0  0
    1.2945   -0.9405    0.0000 C   0  0  0  0  0  0  0  0  0  0  0  0
    1.2945   -2.5405    0.0000 H   0  0  0  0  0  0  0  0  0  0  0  0
    2.5888   -0.0000    0.0000 C   0  0  0  0  0  0  0  0  0  0  0  0
    4.1105   -0.4944    0.0000 H   0  0  0  0  0  0  0  0  0  0  0  0
    2.0944    1.5217    0.0000 C   0  0  0  0  0  0  0  0  0  0  0  0
    3.0349    2.8161    0.0000 H   0  0  0  0  0  0  0  0  0  0  0  0
   -0.4460    2.8161    0.0000 H   0  0  0  0  0  0  0  0  0  0  0  0
  1  2  1  0  0  0  0
  2  3  1  0  0  0  0
  2  4  1  0  0  0  0
  2  5  1  0  0  0  0
  5  6  1  0  0  0  0
  5  7  2  0  0  0  0
  7  8  1  0  0  0  0
  7  9  1  0  0  0  0
  9  1  2  0  0  0  0
  9 10  1  0  0  0  0
  1 11  1  0  0  0  0
M  END
> <CAS>
542-92-7

> <NAME>
CYCLOPENTADIENE

> <preferred_name>
1,3-Cyclopentadiene

> <iupac>
cyclopenta-1,3-diene

> <SMILES>
C1C=CC=C1

> <Canonical_QSARr>
C1C=CC=C1

> <InChI_Code_QSARr>
InChI=1S/C5H6/c1-2-4-5-3-1/h1-4H,5H2

> <InChI Key_QSARr>
ZSWFCLXCOIISFI-UHFFFAOYSA-N

> <Salt_Solvent>
?

> <WS Temperature>
25

> <WS Reference>
AMOORE,JE & HAUTALA,E (1983)

> <dsstox_substance_id>
DTXSID0027191

> <LogMolar>
-1.565

$$$$
543-29-3
  -INDIGO-01081615412D

 17 16  0  0  0  0  0  0  0  0999 V2000
    3.0071    1.0945    0.0000 O   0  0  0  0  0  0  0  0  0  0  0  0
    1.5036    0.5472    0.0000 C   0  0  0  0  0  0  0  0  0  0  0  0
    0.0000    0.0000    0.0000 C   0  0  0  0  0  0  0  0  0  0  0  0
   -1.3856   -0.8000    0.0000 C   0  0  0  0  0  0  0  0  0  0  0  0
   -2.7713   -1.6000    0.0000 H   0  0  0  0  0  0  0  0  0  0  0  0
   -1.3856   -2.4000    0.0000 H   0  0  0  0  0  0  0  0  0  0  0  0
   -2.7713    0.0000    0.0000 H   0  0  0  0  0  0  0  0  0  0  0  0
   -0.8000    1.3856    0.0000 C   0  0  0  0  0  0  0  0  0  0  0  0
   -1.6000    2.7713    0.0000 H   0  0  0  0  0  0  0  0  0  0  0  0
   -2.4000    1.3856    0.0000 H   0  0  0  0  0  0  0  0  0  0  0  0
    0.0000    2.7713    0.0000 H   0  0  0  0  0  0  0  0  0  0  0  0
    0.8000   -1.3856    0.0000 H   0  0  0  0  0  0  0  0  0  0  0  0
    2.0507   -0.9563    0.0000 H   0  0  0  0  0  0  0  0  0  0  0  0
    1.2256    2.1229    0.0000 H   0  0  0  0  0  0  0  0  0  0  0  0
    4.2327    0.0660    0.0000 N   0  0  0  0  0  0  0  0  0  0  0  0
    5.7362    0.6132    0.0000 O   0  0  0  0  0  0  0  0  0  0  0  0
    3.9549   -1.5097    0.0000 O   0  0  0  0  0  0  0  0  0  0  0  0
  1  2  1  0  0  0  0
  2  3  1  0  0  0  0
  3  4  1  0  0  0  0
  4  5  1  0  0  0  0
  4  6  1  0  0  0  0
  4  7  1  0  0  0  0
  3  8  1  0  0  0  0
  8  9  1  0  0  0  0
  8 10  1  0  0  0  0
  8 11  1  0  0  0  0
  3 12  1  0  0  0  0
  2 13  1  0  0  0  0
  2 14  1  0  0  0  0
  1 15  1  0  0  0  0
 15 16  2  0  0  0  0
 15 17  1  0  0  0  0
M  CHG  2  15   1  17  -1
M  END
> <CAS>
543-29-3

> <NAME>
ISOBUTYL NITRATE

> <preferred_name>
Isobutyl nitrate

> <iupac>
2-methylpropyl nitrate

> <SMILES>
CC(C)CO[N+]([O-])=O

> <Canonical_QSARr>
CC(C)CO[N+]([O-])=O

> <InChI_Code_QSARr>
InChI=1S/C4H9NO3/c1-4(2)3-8-5(6)7/h4H,3H2,1-2H3

> <InChI Key_QSARr>
LNNXFUZKZLXPOF-UHFFFAOYSA-N

> <Salt_Solvent>
?

> <WS Temperature>
25

> <WS Reference>
HAUFF,K ET AL. (1998)

> <dsstox_substance_id>
DTXSID70202655

> <LogMolar>
-1.9521

$$$$
544-01-4
  -INDIGO-01081615412D

 33 32  0  0  0  0  0  0  0  0999 V2000
   -0.0001   -0.0000    0.0000 C   0  0  0  0  0  0  0  0  0  0  0  0
   -1.3857   -0.8000    0.0000 C   0  0  0  0  0  0  0  0  0  0  0  0
   -2.7713   -1.6000    0.0000 H   0  0  0  0  0  0  0  0  0  0  0  0
   -1.3857   -2.4000    0.0000 H   0  0  0  0  0  0  0  0  0  0  0  0
   -2.7713   -0.0000    0.0000 H   0  0  0  0  0  0  0  0  0  0  0  0
   -0.8000    1.3856    0.0000 C   0  0  0  0  0  0  0  0  0  0  0  0
   -1.6000    2.7713    0.0000 H   0  0  0  0  0  0  0  0  0  0  0  0
   -2.3999    1.3856    0.0000 H   0  0  0  0  0  0  0  0  0  0  0  0
   -0.0001    2.7713    0.0000 H   0  0  0  0  0  0  0  0  0  0  0  0
    1.5036    0.5473    0.0000 C   0  0  0  0  0  0  0  0  0  0  0  0
    3.0070    1.0945    0.0000 C   0  0  0  0  0  0  0  0  0  0  0  0
    4.5106    1.6417    0.0000 O   0  0  0  0  0  0  0  0  0  0  0  0
    5.7362    0.6133    0.0000 C   0  0  0  0  0  0  0  0  0  0  0  0
    6.9619   -0.4152    0.0000 C   0  0  0  0  0  0  0  0  0  0  0  0
    8.1875   -1.4437    0.0000 C   0  0  0  0  0  0  0  0  0  0  0  0
    9.2159   -2.6694    0.0000 C   0  0  0  0  0  0  0  0  0  0  0  0
   10.2444   -3.8950    0.0000 H   0  0  0  0  0  0  0  0  0  0  0  0
   10.7916   -2.3916    0.0000 H   0  0  0  0  0  0  0  0  0  0  0  0
    8.6687   -4.1729    0.0000 H   0  0  0  0  0  0  0  0  0  0  0  0
    9.4133   -0.4152    0.0000 C   0  0  0  0  0  0  0  0  0  0  0  0
   10.6389    0.6133    0.0000 H   0  0  0  0  0  0  0  0  0  0  0  0
   10.9167   -0.9625    0.0000 H   0  0  0  0  0  0  0  0  0  0  0  0
    9.4133    1.1847    0.0000 H   0  0  0  0  0  0  0  0  0  0  0  0
    6.9619   -2.4722    0.0000 H   0  0  0  0  0  0  0  0  0  0  0  0
    7.9903    0.8105    0.0000 H   0  0  0  0  0  0  0  0  0  0  0  0
    5.9334   -1.6409    0.0000 H   0  0  0  0  0  0  0  0  0  0  0  0
    6.7647    1.8389    0.0000 H   0  0  0  0  0  0  0  0  0  0  0  0
    4.7078   -0.6125    0.0000 H   0  0  0  0  0  0  0  0  0  0  0  0
    3.5542   -0.4090    0.0000 H   0  0  0  0  0  0  0  0  0  0  0  0
    2.4598    2.5979    0.0000 H   0  0  0  0  0  0  0  0  0  0  0  0
    2.0508   -0.9563    0.0000 H   0  0  0  0  0  0  0  0  0  0  0  0
    0.9563    2.0507    0.0000 H   0  0  0  0  0  0  0  0  0  0  0  0
    0.7999   -1.3857    0.0000 H   0  0  0  0  0  0  0  0  0  0  0  0
  1  2  1  0  0  0  0
  2  3  1  0  0  0  0
  2  4  1  0  0  0  0
  2  5  1  0  0  0  0
  1  6  1  0  0  0  0
  6  7  1  0  0  0  0
  6  8  1  0  0  0  0
  6  9  1  0  0  0  0
  1 10  1  0  0  0  0
 10 11  1  0  0  0  0
 11 12  1  0  0  0  0
 12 13  1  0  0  0  0
 13 14  1  0  0  0  0
 14 15  1  0  0  0  0
 15 16  1  0  0  0  0
 16 17  1  0  0  0  0
 16 18  1  0  0  0  0
 16 19  1  0  0  0  0
 15 20  1  0  0  0  0
 20 21  1  0  0  0  0
 20 22  1  0  0  0  0
 20 23  1  0  0  0  0
 15 24  1  0  0  0  0
 14 25  1  0  0  0  0
 14 26  1  0  0  0  0
 13 27  1  0  0  0  0
 13 28  1  0  0  0  0
 11 29  1  0  0  0  0
 11 30  1  0  0  0  0
 10 31  1  0  0  0  0
 10 32  1  0  0  0  0
  1 33  1  0  0  0  0
M  END
> <CAS>
544-01-4

> <NAME>
DIISOPENTYL ETHER

> <preferred_name>
Isoamyl ether

> <iupac>
bis(3-methylbutyl) ether

> <SMILES>
CC(C)CCOCCC(C)C

> <Canonical_QSARr>
CC(C)CCOCCC(C)C

> <InChI_Code_QSARr>
InChI=1S/C10H22O/c1-9(2)5-7-11-8-6-10(3)4/h9-10H,5-8H2,1-4H3

> <InChI Key_QSARr>
AQZGPSLYZOOYQP-UHFFFAOYSA-N

> <Salt_Solvent>
?

> <WS Temperature>
25

> <WS Reference>
RIDDICK,JA ET AL. (1986)

> <dsstox_substance_id>
DTXSID8052198

> <LogMolar>
-2.8984

$$$$
544-63-8
  -INDIGO-01081615412D

 44 43  0  0  0  0  0  0  0  0999 V2000
   12.0000   -1.3856    0.0000 O   0  0  0  0  0  0  0  0  0  0  0  0
   11.2000    0.0000    0.0000 C   0  0  0  0  0  0  0  0  0  0  0  0
    9.6001    0.0000    0.0000 C   0  0  0  0  0  0  0  0  0  0  0  0
    8.0001    0.0000    0.0000 C   0  0  0  0  0  0  0  0  0  0  0  0
    6.4001    0.0000    0.0000 C   0  0  0  0  0  0  0  0  0  0  0  0
    4.8001    0.0000    0.0000 C   0  0  0  0  0  0  0  0  0  0  0  0
    3.2002    0.0000    0.0000 C   0  0  0  0  0  0  0  0  0  0  0  0
    1.6002    0.0000    0.0000 C   0  0  0  0  0  0  0  0  0  0  0  0
   -0.0002    0.0000    0.0000 C   0  0  0  0  0  0  0  0  0  0  0  0
   -1.6001    0.0000    0.0000 C   0  0  0  0  0  0  0  0  0  0  0  0
   -3.2001    0.0000    0.0000 C   0  0  0  0  0  0  0  0  0  0  0  0
   -4.8001   -0.0000    0.0000 C   0  0  0  0  0  0  0  0  0  0  0  0
   -6.4001   -0.0000    0.0000 C   0  0  0  0  0  0  0  0  0  0  0  0
   -8.0000   -0.0000    0.0000 C   0  0  0  0  0  0  0  0  0  0  0  0
   -9.6000   -0.0000    0.0000 C   0  0  0  0  0  0  0  0  0  0  0  0
  -11.2000   -0.0000    0.0000 H   0  0  0  0  0  0  0  0  0  0  0  0
  -10.4000   -1.3856    0.0000 H   0  0  0  0  0  0  0  0  0  0  0  0
  -10.4000    1.3856    0.0000 H   0  0  0  0  0  0  0  0  0  0  0  0
   -8.0000   -1.6000    0.0000 H   0  0  0  0  0  0  0  0  0  0  0  0
   -8.0000    1.6000    0.0000 H   0  0  0  0  0  0  0  0  0  0  0  0
   -6.4001   -1.6000    0.0000 H   0  0  0  0  0  0  0  0  0  0  0  0
   -6.4001    1.6000    0.0000 H   0  0  0  0  0  0  0  0  0  0  0  0
   -4.8001   -1.6000    0.0000 H   0  0  0  0  0  0  0  0  0  0  0  0
   -4.8001    1.6000    0.0000 H   0  0  0  0  0  0  0  0  0  0  0  0
   -3.2001    1.6000    0.0000 H   0  0  0  0  0  0  0  0  0  0  0  0
   -3.2001   -1.6000    0.0000 H   0  0  0  0  0  0  0  0  0  0  0  0
   -1.6001   -1.6000    0.0000 H   0  0  0  0  0  0  0  0  0  0  0  0
   -1.6001    1.6000    0.0000 H   0  0  0  0  0  0  0  0  0  0  0  0
   -0.0002    1.6000    0.0000 H   0  0  0  0  0  0  0  0  0  0  0  0
   -0.0002   -1.6000    0.0000 H   0  0  0  0  0  0  0  0  0  0  0  0
    1.6002   -1.6000    0.0000 H   0  0  0  0  0  0  0  0  0  0  0  0
    1.6002    1.6000    0.0000 H   0  0  0  0  0  0  0  0  0  0  0  0
    3.2002    1.6000    0.0000 H   0  0  0  0  0  0  0  0  0  0  0  0
    3.2002   -1.6000    0.0000 H   0  0  0  0  0  0  0  0  0  0  0  0
    4.8001   -1.6000    0.0000 H   0  0  0  0  0  0  0  0  0  0  0  0
    4.8001    1.6000    0.0000 H   0  0  0  0  0  0  0  0  0  0  0  0
    6.4001   -1.6000    0.0000 H   0  0  0  0  0  0  0  0  0  0  0  0
    6.4001    1.6000    0.0000 H   0  0  0  0  0  0  0  0  0  0  0  0
    8.0001   -1.6000    0.0000 H   0  0  0  0  0  0  0  0  0  0  0  0
    8.0001    1.6000    0.0000 H   0  0  0  0  0  0  0  0  0  0  0  0
    9.6001   -1.6000    0.0000 H   0  0  0  0  0  0  0  0  0  0  0  0
    9.6001    1.6000    0.0000 H   0  0  0  0  0  0  0  0  0  0  0  0
   12.0000    1.3856    0.0000 O   0  0  0  0  0  0  0  0  0  0  0  0
   13.6000    1.3856    0.0000 H   0  0  0  0  0  0  0  0  0  0  0  0
  1  2  2  0  0  0  0
  2  3  1  0  0  0  0
  3  4  1  0  0  0  0
  4  5  1  0  0  0  0
  5  6  1  0  0  0  0
  6  7  1  0  0  0  0
  7  8  1  0  0  0  0
  8  9  1  0  0  0  0
  9 10  1  0  0  0  0
 10 11  1  0  0  0  0
 11 12  1  0  0  0  0
 12 13  1  0  0  0  0
 13 14  1  0  0  0  0
 14 15  1  0  0  0  0
 15 16  1  0  0  0  0
 15 17  1  0  0  0  0
 15 18  1  0  0  0  0
 14 19  1  0  0  0  0
 14 20  1  0  0  0  0
 13 21  1  0  0  0  0
 13 22  1  0  0  0  0
 12 23  1  0  0  0  0
 12 24  1  0  0  0  0
 11 25  1  0  0  0  0
 11 26  1  0  0  0  0
 10 27  1  0  0  0  0
 10 28  1  0  0  0  0
  9 29  1  0  0  0  0
  9 30  1  0  0  0  0
  8 31  1  0  0  0  0
  8 32  1  0  0  0  0
  7 33  1  0  0  0  0
  7 34  1  0  0  0  0
  6 35  1  0  0  0  0
  6 36  1  0  0  0  0
  5 37  1  0  0  0  0
  5 38  1  0  0  0  0
  4 39  1  0  0  0  0
  4 40  1  0  0  0  0
  3 41  1  0  0  0  0
  3 42  1  0  0  0  0
  2 43  1  0  0  0  0
 43 44  1  0  0  0  0
M  END
> <CAS>
544-63-8

> <NAME>
TETRADECANOIC ACID

> <preferred_name>
Tetradecanoic acid

> <iupac>
tetradecanoic acid

> <SMILES>
CCCCCCCCCCCCCC(O)=O

> <Canonical_QSARr>
CCCCCCCCCCCCCC(O)=O

> <InChI_Code_QSARr>
InChI=1S/C14H28O2/c1-2-3-4-5-6-7-8-9-10-11-12-13-14(15)16/h2-13H2,1H3,(H,15,16)

> <InChI Key_QSARr>
TUNFSRHWOTWDNC-UHFFFAOYSA-N

> <Salt_Solvent>
?

> <WS Temperature>
25

> <WS Reference>
YALKOWSKY,SH & DANNENFELSER,RM (1992)

> <dsstox_substance_id>
DTXSID6021666

> <LogMolar>
-5.3293

$$$$
547-65-9
  -INDIGO-01081615412D

 13 13  0  0  0  0  0  0  0  0999 V2000
   -1.3857   -0.8000    0.0000 C   0  0  0  0  0  0  0  0  0  0  0  0
   -1.0530   -2.3651    0.0000 O   0  0  0  0  0  0  0  0  0  0  0  0
    0.5382   -2.5323    0.0000 C   0  0  0  0  0  0  0  0  0  0  0  0
    1.3382   -3.9179    0.0000 O   0  0  0  0  0  0  0  0  0  0  0  0
    1.1890   -1.0706    0.0000 C   0  0  0  0  0  0  0  0  0  0  0  0
    2.7541   -0.7379    0.0000 C   0  0  0  0  0  0  0  0  0  0  0  0
    3.8247   -1.9270    0.0000 H   0  0  0  0  0  0  0  0  0  0  0  0
    3.2485    0.7837    0.0000 H   0  0  0  0  0  0  0  0  0  0  0  0
   -0.0000   -0.0000    0.0000 C   0  0  0  0  0  0  0  0  0  0  0  0
    1.1890    1.0706    0.0000 H   0  0  0  0  0  0  0  0  0  0  0  0
   -0.9405    1.2944    0.0000 H   0  0  0  0  0  0  0  0  0  0  0  0
   -2.0364    0.6616    0.0000 H   0  0  0  0  0  0  0  0  0  0  0  0
   -2.9073   -1.2944    0.0000 H   0  0  0  0  0  0  0  0  0  0  0  0
  1  2  1  0  0  0  0
  2  3  1  0  0  0  0
  3  4  2  0  0  0  0
  3  5  1  0  0  0  0
  5  6  2  0  0  0  0
  6  7  1  0  0  0  0
  6  8  1  0  0  0  0
  5  9  1  0  0  0  0
  9  1  1  0  0  0  0
  9 10  1  0  0  0  0
  9 11  1  0  0  0  0
  1 12  1  0  0  0  0
  1 13  1  0  0  0  0
M  END
> <CAS>
547-65-9

> <NAME>
alpha-METHYLENE BUTYROLACTONE

> <preferred_name>
2(3H)-Furanone, dihydro-3-methylene-  (

> <iupac>
3-methylideneoxolan-2-one

> <SMILES>
C=C1CCOC1=O

> <Canonical_QSARr>
C=C1CCOC1=O

> <InChI_Code_QSARr>
InChI=1S/C5H6O2/c1-4-2-3-7-5(4)6/h1-3H2

> <InChI Key_QSARr>
GSLDEZOOOSBFGP-UHFFFAOYSA-N

> <Salt_Solvent>
?

> <WS Temperature>


> <WS Reference>
MERCK INDEX (1996)

> <dsstox_substance_id>
DTXSID2074663

> <LogMolar>
0.1844

$$$$
550-28-7
  -INDIGO-01081615412D

 27 27  0  0  0  0  0  0  0  0999 V2000
    0.0000    2.7713    0.0000 O   0  0  0  0  0  0  0  0  0  0  0  0
   -0.8000    1.3856    0.0000 C   0  0  0  0  0  0  0  0  0  0  0  0
   -2.4001    1.3856    0.0000 N   0  0  0  0  0  0  0  0  0  0  0  0
   -3.2000    2.7713    0.0000 C   0  0  0  0  0  0  0  0  0  0  0  0
   -4.0000    4.1569    0.0000 H   0  0  0  0  0  0  0  0  0  0  0  0
   -4.8000    2.7713    0.0000 H   0  0  0  0  0  0  0  0  0  0  0  0
   -2.4001    4.1569    0.0000 H   0  0  0  0  0  0  0  0  0  0  0  0
   -3.2000    0.0001    0.0000 C   0  0  0  0  0  0  0  0  0  0  0  0
   -4.8000    0.0001    0.0000 O   0  0  0  0  0  0  0  0  0  0  0  0
   -2.4001   -1.3856    0.0000 C   0  0  0  0  0  0  0  0  0  0  0  0
   -3.2000   -2.7712    0.0000 H   0  0  0  0  0  0  0  0  0  0  0  0
   -0.8000   -1.3856    0.0000 C   0  0  0  0  0  0  0  0  0  0  0  0
    0.0000   -2.7712    0.0000 N   0  0  0  0  0  0  0  0  0  0  0  0
   -0.8000   -4.1569    0.0000 H   0  0  0  0  0  0  0  0  0  0  0  0
    1.6000   -2.7712    0.0000 H   0  0  0  0  0  0  0  0  0  0  0  0
    0.0000    0.0001    0.0000 N   0  0  0  0  0  0  0  0  0  0  0  0
    1.6000    0.0001    0.0000 C   0  0  0  0  0  0  0  0  0  0  0  0
    3.2001    0.0001    0.0000 C   0  0  0  0  0  0  0  0  0  0  0  0
    4.0001   -1.3856    0.0000 C   0  0  0  0  0  0  0  0  0  0  0  0
    5.6000   -1.3856    0.0000 H   0  0  0  0  0  0  0  0  0  0  0  0
    3.2001   -2.7712    0.0000 H   0  0  0  0  0  0  0  0  0  0  0  0
    4.0001    1.3856    0.0000 C   0  0  0  0  0  0  0  0  0  0  0  0
    4.8000    2.7713    0.0000 H   0  0  0  0  0  0  0  0  0  0  0  0
    5.6000    1.3856    0.0000 H   0  0  0  0  0  0  0  0  0  0  0  0
    3.2001    2.7713    0.0000 H   0  0  0  0  0  0  0  0  0  0  0  0
    1.6000    1.6000    0.0000 H   0  0  0  0  0  0  0  0  0  0  0  0
    1.6000   -1.6000    0.0000 H   0  0  0  0  0  0  0  0  0  0  0  0
  1  2  2  0  0  0  0
  2  3  1  0  0  0  0
  3  4  1  0  0  0  0
  4  5  1  0  0  0  0
  4  6  1  0  0  0  0
  4  7  1  0  0  0  0
  3  8  1  0  0  0  0
  8  9  2  0  0  0  0
  8 10  1  0  0  0  0
 10 11  1  0  0  0  0
 10 12  2  0  0  0  0
 12 13  1  0  0  0  0
 13 14  1  0  0  0  0
 13 15  1  0  0  0  0
 12 16  1  0  0  0  0
 16  2  1  0  0  0  0
 16 17  1  0  0  0  0
 17 18  1  0  0  0  0
 18 19  2  0  0  0  0
 19 20  1  0  0  0  0
 19 21  1  0  0  0  0
 18 22  1  0  0  0  0
 22 23  1  0  0  0  0
 22 24  1  0  0  0  0
 22 25  1  0  0  0  0
 17 26  1  0  0  0  0
 17 27  1  0  0  0  0
M  END
> <CAS>
550-28-7

> <NAME>
Amisometradine

> <preferred_name>
Amisometradine [INN:BAN:NF]

> <iupac>
6-amino-3-methyl-1-(2-methylprop-2-enyl)pyrimidine-2,4-dione

> <SMILES>
CN1C(=O)N(CC(C)=C)C(N)=CC1=O

> <Canonical_QSARr>
CN1C(=O)N(CC(C)=C)C(N)=CC1=O

> <InChI_Code_QSARr>
InChI=1S/C9H13N3O2/c1-6(2)5-12-7(10)4-8(13)11(3)9(12)14/h4H,1,5,10H2,2-3H3

> <InChI Key_QSARr>
FXNYSZHYMGWWEZ-UHFFFAOYSA-N

> <Salt_Solvent>
?

> <WS Temperature>
25

> <WS Reference>
MERCK INDEX (1996)

> <dsstox_substance_id>
DTXSID40203538

> <LogMolar>
-0.9895

$$$$
551-06-4
  -INDIGO-01081615412D

 20 21  0  0  0  0  0  0  0  0999 V2000
    2.3999    1.3856    0.0000 N   0  0  0  0  0  0  0  0  0  0  0  0
    1.6000    0.0000    0.0000 C   0  0  0  0  0  0  0  0  0  0  0  0
    0.0000    0.0000    0.0000 C   0  0  0  0  0  0  0  0  0  0  0  0
   -0.8000    1.3856    0.0000 C   0  0  0  0  0  0  0  0  0  0  0  0
   -2.4001    1.3856    0.0000 C   0  0  0  0  0  0  0  0  0  0  0  0
   -3.2000    0.0000    0.0000 C   0  0  0  0  0  0  0  0  0  0  0  0
   -2.4001   -1.3856    0.0000 C   0  0  0  0  0  0  0  0  0  0  0  0
   -3.2000   -2.7713    0.0000 H   0  0  0  0  0  0  0  0  0  0  0  0
   -0.8000   -1.3856    0.0000 C   0  0  0  0  0  0  0  0  0  0  0  0
    0.0000   -2.7713    0.0000 C   0  0  0  0  0  0  0  0  0  0  0  0
   -0.8000   -4.1569    0.0000 H   0  0  0  0  0  0  0  0  0  0  0  0
    1.6000   -2.7713    0.0000 C   0  0  0  0  0  0  0  0  0  0  0  0
    2.3999   -4.1569    0.0000 H   0  0  0  0  0  0  0  0  0  0  0  0
    2.3999   -1.3856    0.0000 C   0  0  0  0  0  0  0  0  0  0  0  0
    4.0000   -1.3856    0.0000 H   0  0  0  0  0  0  0  0  0  0  0  0
   -4.8000    0.0000    0.0000 H   0  0  0  0  0  0  0  0  0  0  0  0
   -3.2000    2.7713    0.0000 H   0  0  0  0  0  0  0  0  0  0  0  0
    0.0000    2.7713    0.0000 H   0  0  0  0  0  0  0  0  0  0  0  0
    4.0000    1.3856    0.0000 C   0  0  0  0  0  0  0  0  0  0  0  0
    5.6000    1.3856    0.0000 S   0  0  0  0  0  0  0  0  0  0  0  0
  1  2  1  0  0  0  0
  2  3  4  0  0  0  0
  3  4  4  0  0  0  0
  4  5  4  0  0  0  0
  5  6  4  0  0  0  0
  6  7  4  0  0  0  0
  7  8  1  0  0  0  0
  7  9  4  0  0  0  0
  9  3  4  0  0  0  0
  9 10  4  0  0  0  0
 10 11  1  0  0  0  0
 10 12  4  0  0  0  0
 12 13  1  0  0  0  0
 12 14  4  0  0  0  0
 14  2  4  0  0  0  0
 14 15  1  0  0  0  0
  6 16  1  0  0  0  0
  5 17  1  0  0  0  0
  4 18  1  0  0  0  0
  1 19  2  0  0  0  0
 19 20  2  0  0  0  0
M  END
> <CAS>
551-06-4

> <NAME>
1-ISOTHIOCYANONAPHTHALENE

> <preferred_name>
alpha-Naphylisothiocyanate

> <iupac>
1-isothiocyanatonaphthalene

> <SMILES>
S=C=Nc1cccc2ccccc21

> <Canonical_QSARr>
S=C=Nc1cccc2ccccc21

> <InChI_Code_QSARr>
InChI=1S/C11H7NS/c13-8-12-11-7-3-5-9-4-1-2-6-10(9)11/h1-7H

> <InChI Key_QSARr>
JBDOSUUXMYMWQH-UHFFFAOYSA-N

> <Salt_Solvent>
?

> <WS Temperature>
25

> <WS Reference>
YALKOWSKY,SH & DANNENFELSER,RM (1992)

> <dsstox_substance_id>
DTXSID8025703

> <LogMolar>
-4.6022

$$$$
552-32-9
  -INDIGO-01081615412D

 21 21  0  0  0  0  0  0  0  0999 V2000
   -0.8000    1.3856    0.0000 C   0  0  0  0  0  0  0  0  0  0  0  0
    0.0000    2.7713    0.0000 N   0  0  0  0  0  0  0  0  0  0  0  0
   -0.8000    4.1569    0.0000 O   0  0  0  0  0  0  0  0  0  0  0  0
    1.6000    2.7713    0.0000 O   0  0  0  0  0  0  0  0  0  0  0  0
   -2.4001    1.3856    0.0000 C   0  0  0  0  0  0  0  0  0  0  0  0
   -3.2000    2.7713    0.0000 H   0  0  0  0  0  0  0  0  0  0  0  0
   -3.2000    0.0000    0.0000 C   0  0  0  0  0  0  0  0  0  0  0  0
   -4.8000    0.0000    0.0000 H   0  0  0  0  0  0  0  0  0  0  0  0
   -2.4001   -1.3856    0.0000 C   0  0  0  0  0  0  0  0  0  0  0  0
   -3.2000   -2.7713    0.0000 H   0  0  0  0  0  0  0  0  0  0  0  0
   -0.8000   -1.3856    0.0000 C   0  0  0  0  0  0  0  0  0  0  0  0
    0.0000   -2.7713    0.0000 H   0  0  0  0  0  0  0  0  0  0  0  0
    0.0000    0.0000    0.0000 C   0  0  0  0  0  0  0  0  0  0  0  0
    1.6000    0.0000    0.0000 N   0  0  0  0  0  0  0  0  0  0  0  0
    2.3999   -1.3856    0.0000 C   0  0  0  0  0  0  0  0  0  0  0  0
    1.6000   -2.7713    0.0000 O   0  0  0  0  0  0  0  0  0  0  0  0
    4.0001   -1.3856    0.0000 C   0  0  0  0  0  0  0  0  0  0  0  0
    5.6000   -1.3856    0.0000 H   0  0  0  0  0  0  0  0  0  0  0  0
    4.8000   -2.7713    0.0000 H   0  0  0  0  0  0  0  0  0  0  0  0
    4.8000    0.0000    0.0000 H   0  0  0  0  0  0  0  0  0  0  0  0
    2.3999    1.3856    0.0000 H   0  0  0  0  0  0  0  0  0  0  0  0
  1  2  1  0  0  0  0
  2  3  1  0  0  0  0
  2  4  2  0  0  0  0
  1  5  4  0  0  0  0
  5  6  1  0  0  0  0
  5  7  4  0  0  0  0
  7  8  1  0  0  0  0
  7  9  4  0  0  0  0
  9 10  1  0  0  0  0
  9 11  4  0  0  0  0
 11 12  1  0  0  0  0
 11 13  4  0  0  0  0
 13  1  4  0  0  0  0
 13 14  1  0  0  0  0
 14 15  1  0  0  0  0
 15 16  2  0  0  0  0
 15 17  1  0  0  0  0
 17 18  1  0  0  0  0
 17 19  1  0  0  0  0
 17 20  1  0  0  0  0
 14 21  1  0  0  0  0
M  CHG  2   2   1   3  -1
M  END
> <CAS>
552-32-9

> <NAME>
2-NITROACETANILIDE

> <preferred_name>
Acetamide, N-(2-nitrophenyl)-

> <iupac>
N-(2-nitrophenyl)acetamide

> <SMILES>
CC(=O)Nc1ccccc1[N+]([O-])=O

> <Canonical_QSARr>
CC(=O)Nc1ccccc1[N+]([O-])=O

> <InChI_Code_QSARr>
InChI=1S/C8H8N2O3/c1-6(11)9-7-4-2-3-5-8(7)10(12)13/h2-5H,1H3,(H,9,11)

> <InChI Key_QSARr>
BUNFNRVLMKHKIT-UHFFFAOYSA-N

> <Salt_Solvent>
?

> <WS Temperature>
25

> <WS Reference>
EPA

> <dsstox_substance_id>
DTXSID4060282

> <LogMolar>
-1.9093

$$$$
553-26-4
  -INDIGO-01081615412D

 20 21  0  0  0  0  0  0  0  0999 V2000
    3.2000    0.0000    0.0000 N   0  0  0  1  0  0  0  0  0  0  0  0
    2.3999    1.3856    0.0000 C   0  0  0  0  0  0  0  0  0  0  0  0
    3.2000    2.7713    0.0000 H   0  0  0  0  0  0  0  0  0  0  0  0
    0.7999    1.3856    0.0000 C   0  0  0  0  0  0  0  0  0  0  0  0
    0.0000    2.7713    0.0000 H   0  0  0  0  0  0  0  0  0  0  0  0
    0.0000    0.0000    0.0000 C   0  0  0  0  0  0  0  0  0  0  0  0
   -1.6000   -0.0000    0.0000 C   0  0  0  0  0  0  0  0  0  0  0  0
   -2.3999    1.3856    0.0000 C   0  0  0  0  0  0  0  0  0  0  0  0
   -1.6000    2.7713    0.0000 H   0  0  0  0  0  0  0  0  0  0  0  0
   -3.9999    1.3856    0.0000 C   0  0  0  0  0  0  0  0  0  0  0  0
   -4.8000    2.7713    0.0000 H   0  0  0  0  0  0  0  0  0  0  0  0
   -4.8000   -0.0000    0.0000 N   0  0  0  1  0  0  0  0  0  0  0  0
   -3.9999   -1.3856    0.0000 C   0  0  0  0  0  0  0  0  0  0  0  0
   -4.8000   -2.7713    0.0000 H   0  0  0  0  0  0  0  0  0  0  0  0
   -2.3999   -1.3856    0.0000 C   0  0  0  0  0  0  0  0  0  0  0  0
   -1.6000   -2.7713    0.0000 H   0  0  0  0  0  0  0  0  0  0  0  0
    0.8001   -1.3856    0.0000 C   0  0  0  0  0  0  0  0  0  0  0  0
    0.0000   -2.7713    0.0000 H   0  0  0  0  0  0  0  0  0  0  0  0
    2.4001   -1.3856    0.0000 C   0  0  0  0  0  0  0  0  0  0  0  0
    3.2000   -2.7713    0.0000 H   0  0  0  0  0  0  0  0  0  0  0  0
  1  2  4  0  0  0  0
  2  3  1  0  0  0  0
  2  4  4  0  0  0  0
  4  5  1  0  0  0  0
  4  6  4  0  0  0  0
  6  7  1  0  0  0  0
  7  8  4  0  0  0  0
  8  9  1  0  0  0  0
  8 10  4  0  0  0  0
 10 11  1  0  0  0  0
 10 12  4  0  0  0  0
 12 13  4  0  0  0  0
 13 14  1  0  0  0  0
 13 15  4  0  0  0  0
 15  7  4  0  0  0  0
 15 16  1  0  0  0  0
  6 17  4  0  0  0  0
 17 18  1  0  0  0  0
 17 19  4  0  0  0  0
 19  1  4  0  0  0  0
 19 20  1  0  0  0  0
M  END
> <CAS>
553-26-4

> <NAME>
4,4'-DIPYRIDYL

> <preferred_name>
4,4'-Bipyridine

> <iupac>
4,4'-bipyridine

> <SMILES>
c1c[n]ccc1-c1cc[n]cc1

> <Canonical_QSARr>
c1c[n]ccc1-c1cc[n]cc1

> <InChI_Code_QSARr>
InChI=1S/C10H8N2/c1-5-11-6-2-9(1)10-3-7-12-8-4-10/h1-8H

> <InChI Key_QSARr>
MWVTWFVJZLCBMC-UHFFFAOYSA-N

> <Salt_Solvent>
?

> <WS Temperature>
25

> <WS Reference>
YALKOWSKY,SH & DANNENFELSER,RM (1992)

> <dsstox_substance_id>
DTXSID2027200

> <LogMolar>
-1.5376

$$$$
554-00-7
  -INDIGO-01081615412D

 14 14  0  0  0  0  0  0  0  0999 V2000
    0.0000    2.7713    0.0000 Cl  0  0  0  0  0  0  0  0  0  0  0  0
    0.8000    1.3856    0.0000 C   0  0  0  0  0  0  0  0  0  0  0  0
    0.0000   -0.0000    0.0000 C   0  0  0  0  0  0  0  0  0  0  0  0
   -1.6000   -0.0000    0.0000 N   0  0  0  0  0  0  0  0  0  0  0  0
   -2.4000   -1.3856    0.0000 H   0  0  0  0  0  0  0  0  0  0  0  0
   -2.4000    1.3856    0.0000 H   0  0  0  0  0  0  0  0  0  0  0  0
    0.8000   -1.3856    0.0000 C   0  0  0  0  0  0  0  0  0  0  0  0
    0.0000   -2.7713    0.0000 H   0  0  0  0  0  0  0  0  0  0  0  0
    2.4000   -1.3856    0.0000 C   0  0  0  0  0  0  0  0  0  0  0  0
    3.2000   -2.7713    0.0000 H   0  0  0  0  0  0  0  0  0  0  0  0
    3.2000    0.0000    0.0000 C   0  0  0  0  0  0  0  0  0  0  0  0
    4.8000    0.0000    0.0000 Cl  0  0  0  0  0  0  0  0  0  0  0  0
    2.4000    1.3856    0.0000 C   0  0  0  0  0  0  0  0  0  0  0  0
    3.2000    2.7713    0.0000 H   0  0  0  0  0  0  0  0  0  0  0  0
  1  2  1  0  0  0  0
  2  3  4  0  0  0  0
  3  4  1  0  0  0  0
  4  5  1  0  0  0  0
  4  6  1  0  0  0  0
  3  7  4  0  0  0  0
  7  8  1  0  0  0  0
  7  9  4  0  0  0  0
  9 10  1  0  0  0  0
  9 11  4  0  0  0  0
 11 12  1  0  0  0  0
 11 13  4  0  0  0  0
 13  2  4  0  0  0  0
 13 14  1  0  0  0  0
M  END
> <CAS>
554-00-7

> <NAME>
2,4-DICHLOROANILINE

> <preferred_name>
2,4-Dichloroaniline

> <iupac>
2,4-dichloroaniline

> <SMILES>
Nc1ccc(Cl)cc1Cl

> <Canonical_QSARr>
Nc1ccc(Cl)cc1Cl

> <InChI_Code_QSARr>
InChI=1S/C6H5Cl2N/c7-4-1-2-6(9)5(8)3-4/h1-3H,9H2

> <InChI Key_QSARr>
KQCMTOWTPBNWDB-UHFFFAOYSA-N

> <Salt_Solvent>
?

> <WS Temperature>
25

> <WS Reference>
CHEMICALS INSPECTION AND TESTING INSTITU (1992)

> <dsstox_substance_id>
DTXSID1024966

> <LogMolar>
-2.4172

$$$$
554-84-7
  -INDIGO-01081615412D

 15 15  0  0  0  0  0  0  0  0999 V2000
    3.2000    2.7713    0.0000 O   0  0  0  0  0  0  0  0  0  0  0  0
    2.4000    1.3856    0.0000 C   0  0  0  0  0  0  0  0  0  0  0  0
    0.8000    1.3856    0.0000 C   0  0  0  0  0  0  0  0  0  0  0  0
    0.0000    2.7713    0.0000 H   0  0  0  0  0  0  0  0  0  0  0  0
    0.0000    0.0000    0.0000 C   0  0  0  0  0  0  0  0  0  0  0  0
   -1.6000    0.0000    0.0000 N   0  0  0  0  0  0  0  0  0  0  0  0
   -2.4000   -1.3856    0.0000 O   0  0  0  0  0  0  0  0  0  0  0  0
   -2.4000    1.3856    0.0000 O   0  0  0  0  0  0  0  0  0  0  0  0
    0.8000   -1.3856    0.0000 C   0  0  0  0  0  0  0  0  0  0  0  0
    0.0000   -2.7713    0.0000 H   0  0  0  0  0  0  0  0  0  0  0  0
    2.4000   -1.3856    0.0000 C   0  0  0  0  0  0  0  0  0  0  0  0
    3.2000   -2.7713    0.0000 H   0  0  0  0  0  0  0  0  0  0  0  0
    3.2000    0.0000    0.0000 C   0  0  0  0  0  0  0  0  0  0  0  0
    4.8000    0.0000    0.0000 H   0  0  0  0  0  0  0  0  0  0  0  0
    4.8000    2.7713    0.0000 H   0  0  0  0  0  0  0  0  0  0  0  0
  1  2  1  0  0  0  0
  2  3  4  0  0  0  0
  3  4  1  0  0  0  0
  3  5  4  0  0  0  0
  5  6  1  0  0  0  0
  6  7  2  0  0  0  0
  6  8  1  0  0  0  0
  5  9  4  0  0  0  0
  9 10  1  0  0  0  0
  9 11  4  0  0  0  0
 11 12  1  0  0  0  0
 11 13  4  0  0  0  0
 13  2  4  0  0  0  0
 13 14  1  0  0  0  0
  1 15  1  0  0  0  0
M  CHG  2   6   1   8  -1
M  END
> <CAS>
554-84-7

> <NAME>
3-NITROPHENOL

> <preferred_name>
3-Nitrophenol

> <iupac>
3-nitrophenol

> <SMILES>
[O-][N+](=O)c1cccc(O)c1

> <Canonical_QSARr>
[O-][N+](=O)c1cccc(O)c1

> <InChI_Code_QSARr>
InChI=1S/C6H5NO3/c8-6-3-1-2-5(4-6)7(9)10/h1-4,8H

> <InChI Key_QSARr>
RTZZCYNQPHTPPL-UHFFFAOYSA-N

> <Salt_Solvent>
?

> <WS Temperature>
25

> <WS Reference>
MATSUGUMA,HJ (1963)

> <dsstox_substance_id>
DTXSID2025765

> <LogMolar>
-1.013

$$$$
555-30-6
  -INDIGO-01081615412D

 28 28  0  0  0  0  0  0  0  0999 V2000
    0.0000    0.0000    0.0000 C   0  0  0  0  0  0  0  0  0  0  0  0
    1.6000    0.0000    0.0000 C   0  0  0  0  0  0  0  0  0  0  0  0
    3.2000    0.0000    0.0000 H   0  0  0  0  0  0  0  0  0  0  0  0
    2.4000   -1.3857    0.0000 H   0  0  0  0  0  0  0  0  0  0  0  0
    2.4000    1.3857    0.0000 H   0  0  0  0  0  0  0  0  0  0  0  0
    0.0000   -1.6000    0.0000 N   0  0  0  0  0  0  0  0  0  0  0  0
    1.3856   -2.4000    0.0000 H   0  0  0  0  0  0  0  0  0  0  0  0
   -1.0285   -2.8257    0.0000 H   0  0  0  0  0  0  0  0  0  0  0  0
   -1.6000    0.0000    0.0000 C   0  0  0  0  0  0  0  0  0  0  0  0
   -3.2000    0.0000    0.0000 C   0  0  0  0  0  0  0  0  0  0  0  0
   -4.0000    1.3857    0.0000 C   0  0  0  0  0  0  0  0  0  0  0  0
   -3.2000    2.7713    0.0000 H   0  0  0  0  0  0  0  0  0  0  0  0
   -5.6000    1.3857    0.0000 C   0  0  0  0  0  0  0  0  0  0  0  0
   -6.4000    2.7713    0.0000 H   0  0  0  0  0  0  0  0  0  0  0  0
   -6.4000    0.0000    0.0000 C   0  0  0  0  0  0  0  0  0  0  0  0
   -8.0000    0.0000    0.0000 O   0  0  0  0  0  0  0  0  0  0  0  0
   -8.8000    1.3857    0.0000 H   0  0  0  0  0  0  0  0  0  0  0  0
   -5.6000   -1.3857    0.0000 C   0  0  0  0  0  0  0  0  0  0  0  0
   -6.4000   -2.7713    0.0000 O   0  0  0  0  0  0  0  0  0  0  0  0
   -8.0000   -2.7713    0.0000 H   0  0  0  0  0  0  0  0  0  0  0  0
   -4.0000   -1.3857    0.0000 C   0  0  0  0  0  0  0  0  0  0  0  0
   -3.2000   -2.7713    0.0000 H   0  0  0  0  0  0  0  0  0  0  0  0
   -1.6000    1.6000    0.0000 H   0  0  0  0  0  0  0  0  0  0  0  0
   -1.6000   -1.6000    0.0000 H   0  0  0  0  0  0  0  0  0  0  0  0
    0.0000    1.6000    0.0000 C   0  0  0  0  0  0  0  0  0  0  0  0
    1.3856    2.4000    0.0000 O   0  0  0  0  0  0  0  0  0  0  0  0
    1.3856    4.0000    0.0000 H   0  0  0  0  0  0  0  0  0  0  0  0
   -1.2257    2.6284    0.0000 O   0  0  0  0  0  0  0  0  0  0  0  0
  1  2  1  0  0  0  0
  2  3  1  0  0  0  0
  2  4  1  0  0  0  0
  2  5  1  0  0  0  0
  1  6  1  0  0  0  0
  6  7  1  0  0  0  0
  6  8  1  0  0  0  0
  1  9  1  0  0  0  0
  9 10  1  0  0  0  0
 10 11  4  0  0  0  0
 11 12  1  0  0  0  0
 11 13  4  0  0  0  0
 13 14  1  0  0  0  0
 13 15  4  0  0  0  0
 15 16  1  0  0  0  0
 16 17  1  0  0  0  0
 15 18  4  0  0  0  0
 18 19  1  0  0  0  0
 19 20  1  0  0  0  0
 18 21  4  0  0  0  0
 21 10  4  0  0  0  0
 21 22  1  0  0  0  0
  9 23  1  0  0  0  0
  9 24  1  0  0  0  0
  1 25  1  0  0  0  0
 25 26  1  0  0  0  0
 26 27  1  0  0  0  0
 25 28  2  0  0  0  0
M  END
> <CAS>
555-30-6

> <NAME>
METHYLDOPA

> <preferred_name>
Methyldopa

> <iupac>
3-hydroxy-alpha-methyl-L-tyrosine

> <SMILES>
C[C@](N)(Cc1cc(O)c(O)cc1)C(O)=O

> <Canonical_QSARr>
CC(N)(Cc1cc(O)c(O)cc1)C(O)=O

> <InChI_Code_QSARr>
InChI=1S/C10H13NO4/c1-10(11,9(14)15)5-6-2-3-7(12)8(13)4-6/h2-4,12-13H,5,11H2,1H3,(H,14,15)

> <InChI Key_QSARr>
CJCSPKMFHVPWAR-UHFFFAOYSA-N

> <Salt_Solvent>
?

> <WS Temperature>
25

> <WS Reference>
MERCK INDEX (1996)

> <dsstox_substance_id>
DTXSID5023295

> <LogMolar>
-1.3247

$$$$
555-84-0
  -INDIGO-01081615412D

 24 25  0  0  0  0  0  0  0  0999 V2000
  -10.8137    0.6881    0.0000 O   0  0  0  0  0  0  0  0  0  0  0  0
   -9.7430   -0.5009    0.0000 N   0  0  0  0  0  0  0  0  0  0  0  0
   -8.1781   -0.1683    0.0000 C   0  0  0  0  0  0  0  0  0  0  0  0
   -6.9891   -1.2389    0.0000 O   0  0  0  0  0  0  0  0  0  0  0  0
   -5.6034   -0.4389    0.0000 C   0  0  0  0  0  0  0  0  0  0  0  0
   -4.1417   -1.0897    0.0000 C   0  0  0  0  0  0  0  0  0  0  0  0
   -2.8473   -0.1492    0.0000 N   0  0  0  0  0  0  0  0  0  0  0  0
   -1.3856   -0.8000    0.0000 N   0  0  0  0  0  0  0  0  0  0  0  0
   -1.0530   -2.3650    0.0000 C   0  0  0  0  0  0  0  0  0  0  0  0
   -2.1237   -3.5540    0.0000 O   0  0  0  0  0  0  0  0  0  0  0  0
    0.5383   -2.5323    0.0000 N   0  0  0  0  0  0  0  0  0  0  0  0
    1.3383   -3.9179    0.0000 H   0  0  0  0  0  0  0  0  0  0  0  0
    1.1889   -1.0706    0.0000 C   0  0  0  0  0  0  0  0  0  0  0  0
    2.5747   -1.8706    0.0000 H   0  0  0  0  0  0  0  0  0  0  0  0
    2.1295    0.2239    0.0000 H   0  0  0  0  0  0  0  0  0  0  0  0
   -0.0000   -0.0000    0.0000 C   0  0  0  0  0  0  0  0  0  0  0  0
    1.1889    1.0706    0.0000 H   0  0  0  0  0  0  0  0  0  0  0  0
   -0.9404    1.2944    0.0000 H   0  0  0  0  0  0  0  0  0  0  0  0
   -3.9746   -2.6809    0.0000 H   0  0  0  0  0  0  0  0  0  0  0  0
   -5.9360    1.1261    0.0000 C   0  0  0  0  0  0  0  0  0  0  0  0
   -4.8655    2.3151    0.0000 H   0  0  0  0  0  0  0  0  0  0  0  0
   -7.5273    1.2934    0.0000 C   0  0  0  0  0  0  0  0  0  0  0  0
   -8.3273    2.6790    0.0000 H   0  0  0  0  0  0  0  0  0  0  0  0
  -10.2376   -2.0226    0.0000 O   0  0  0  0  0  0  0  0  0  0  0  0
  1  2  1  0  0  0  0
  2  3  1  0  0  0  0
  3  4  4  0  0  0  0
  4  5  4  0  0  0  0
  5  6  1  0  0  0  0
  6  7  2  0  0  0  0
  7  8  1  0  0  0  0
  8  9  1  0  0  0  0
  9 10  2  0  0  0  0
  9 11  1  0  0  0  0
 11 12  1  0  0  0  0
 11 13  1  0  0  0  0
 13 14  1  0  0  0  0
 13 15  1  0  0  0  0
 13 16  1  0  0  0  0
 16  8  1  0  0  0  0
 16 17  1  0  0  0  0
 16 18  1  0  0  0  0
  6 19  1  0  0  0  0
  5 20  4  0  0  0  0
 20 21  1  0  0  0  0
 20 22  4  0  0  0  0
 22  3  4  0  0  0  0
 22 23  1  0  0  0  0
  2 24  2  0  0  0  0
M  CHG  2   1  -1   2   1
M  END
> <CAS>
555-84-0

> <NAME>
Nifuradene

> <preferred_name>
1-[(5-Nitrofurfurylidene)amino]-2-imidazolidinone

> <iupac>
1-{(E)-[(5-nitrofuran-2-yl)methylidene]amino}imidazolidin-2-one

> <SMILES>
[O-][N+](=O)c1ccc(/C=N/N2CCNC2=O)o1

> <Canonical_QSARr>
[O-][N+](=O)c1ccc(C=NN2CCNC2=O)o1

> <InChI_Code_QSARr>
InChI=1S/C8H8N4O4/c13-8-9-3-4-11(8)10-5-6-1-2-7(16-6)12(14)15/h1-2,5H,3-4H2,(H,9,13)/b10-5+

> <InChI Key_QSARr>
VSVAVMVWTLLTCH-BJMVGYQFSA-N

> <Salt_Solvent>
?

> <WS Temperature>


> <WS Reference>
MERCK INDEX (1996)

> <dsstox_substance_id>
DTXSID2020973

> <LogMolar>
-3.3572

$$$$
556-61-6
  -INDIGO-01081615412D

  7  6  0  0  0  0  0  0  0  0999 V2000
    0.0000   -0.0000    0.0000 C   0  0  0  0  0  0  0  0  0  0  0  0
    1.3857   -0.8000    0.0000 N   0  0  0  0  0  0  0  0  0  0  0  0
    2.7713   -0.0000    0.0000 C   0  0  0  0  0  0  0  0  0  0  0  0
    4.1569    0.8000    0.0000 S   0  0  0  0  0  0  0  0  0  0  0  0
   -1.3856    0.8000    0.0000 H   0  0  0  0  0  0  0  0  0  0  0  0
    0.0000    1.6000    0.0000 H   0  0  0  0  0  0  0  0  0  0  0  0
   -1.3856   -0.8000    0.0000 H   0  0  0  0  0  0  0  0  0  0  0  0
  1  2  1  0  0  0  0
  2  3  2  0  0  0  0
  3  4  2  0  0  0  0
  1  5  1  0  0  0  0
  1  6  1  0  0  0  0
  1  7  1  0  0  0  0
M  END
> <CAS>
556-61-6

> <NAME>
METHYL ISOTHIOCYANATE

> <preferred_name>
Methyl isothiocyanate

> <iupac>
isothiocyanatomethane

> <SMILES>
CN=C=S

> <Canonical_QSARr>
CN=C=S

> <InChI_Code_QSARr>
InChI=1S/C2H3NS/c1-3-2-4/h1H3

> <InChI Key_QSARr>
LGDSHSYDSCRFAB-UHFFFAOYSA-N

> <Salt_Solvent>
?

> <WS Temperature>
20

> <WS Reference>
YALKOWSKY,SH & DANNENFELSER,RM (1992)

> <dsstox_substance_id>
DTXSID2027204

> <LogMolar>
-0.9832

$$$$
557-17-5
  -INDIGO-01081615412D

 15 14  0  0  0  0  0  0  0  0999 V2000
    1.6000    0.0000    0.0000 C   0  0  0  0  0  0  0  0  0  0  0  0
    3.2000    0.0000    0.0000 O   0  0  0  0  0  0  0  0  0  0  0  0
    4.0001   -1.3856    0.0000 C   0  0  0  0  0  0  0  0  0  0  0  0
    4.8000   -2.7713    0.0000 H   0  0  0  0  0  0  0  0  0  0  0  0
    5.6000   -1.3856    0.0000 H   0  0  0  0  0  0  0  0  0  0  0  0
    3.2000   -2.7713    0.0000 H   0  0  0  0  0  0  0  0  0  0  0  0
    0.0000    0.0000    0.0000 C   0  0  0  0  0  0  0  0  0  0  0  0
   -1.6001    0.0000    0.0000 C   0  0  0  0  0  0  0  0  0  0  0  0
   -3.2000    0.0000    0.0000 H   0  0  0  0  0  0  0  0  0  0  0  0
   -2.4000   -1.3856    0.0000 H   0  0  0  0  0  0  0  0  0  0  0  0
   -2.4000    1.3856    0.0000 H   0  0  0  0  0  0  0  0  0  0  0  0
    0.0000    1.6000    0.0000 H   0  0  0  0  0  0  0  0  0  0  0  0
    0.0000   -1.6000    0.0000 H   0  0  0  0  0  0  0  0  0  0  0  0
    1.6000   -1.6000    0.0000 H   0  0  0  0  0  0  0  0  0  0  0  0
    1.6000    1.6000    0.0000 H   0  0  0  0  0  0  0  0  0  0  0  0
  1  2  1  0  0  0  0
  2  3  1  0  0  0  0
  3  4  1  0  0  0  0
  3  5  1  0  0  0  0
  3  6  1  0  0  0  0
  1  7  1  0  0  0  0
  7  8  1  0  0  0  0
  8  9  1  0  0  0  0
  8 10  1  0  0  0  0
  8 11  1  0  0  0  0
  7 12  1  0  0  0  0
  7 13  1  0  0  0  0
  1 14  1  0  0  0  0
  1 15  1  0  0  0  0
M  END
> <CAS>
557-17-5

> <NAME>
METHYL PROPYL ETHER

> <preferred_name>
Propane, 1-methoxy-

> <iupac>
1-Methoxypropane

> <SMILES>
CCCOC

> <Canonical_QSARr>
CCCOC

> <InChI_Code_QSARr>
InChI=1S/C4H10O/c1-3-4-5-2/h3-4H2,1-2H3

> <InChI Key_QSARr>
VNKYTQGIUYNRMY-UHFFFAOYSA-N

> <Salt_Solvent>
?

> <WS Temperature>
25

> <WS Reference>
YALKOWSKY,SH & DANNENFELSER,RM (1992)

> <dsstox_substance_id>
DTXSID0074558

> <LogMolar>
-0.3857

$$$$
558-30-5
  -INDIGO-01081615412D

 13 13  0  0  0  0  0  0  0  0999 V2000
   -0.0000   -0.0000    0.0000 C   0  0  0  0  0  0  0  0  0  0  0  0
   -1.5757    0.2778    0.0000 C   0  0  0  0  0  0  0  0  0  0  0  0
   -3.1514    0.5557    0.0000 H   0  0  0  0  0  0  0  0  0  0  0  0
   -2.1230    1.7813    0.0000 H   0  0  0  0  0  0  0  0  0  0  0  0
   -2.6041   -0.9479    0.0000 H   0  0  0  0  0  0  0  0  0  0  0  0
    0.5472    1.5035    0.0000 C   0  0  0  0  0  0  0  0  0  0  0  0
    1.0945    3.0070    0.0000 H   0  0  0  0  0  0  0  0  0  0  0  0
   -0.4812    2.7292    0.0000 H   0  0  0  0  0  0  0  0  0  0  0  0
    2.1229    1.7813    0.0000 H   0  0  0  0  0  0  0  0  0  0  0  0
   -0.0000   -1.6000    0.0000 O   0  0  0  0  0  0  0  0  0  0  0  0
    1.3857   -0.8000    0.0000 C   0  0  0  0  0  0  0  0  0  0  0  0
    2.4141   -2.0257    0.0000 H   0  0  0  0  0  0  0  0  0  0  0  0
    2.4141    0.4257    0.0000 H   0  0  0  0  0  0  0  0  0  0  0  0
  1  2  1  0  0  0  0
  2  3  1  0  0  0  0
  2  4  1  0  0  0  0
  2  5  1  0  0  0  0
  1  6  1  0  0  0  0
  6  7  1  0  0  0  0
  6  8  1  0  0  0  0
  6  9  1  0  0  0  0
  1 10  1  0  0  0  0
 10 11  1  0  0  0  0
 11  1  1  0  0  0  0
 11 12  1  0  0  0  0
 11 13  1  0  0  0  0
M  END
> <CAS>
558-30-5

> <NAME>
2,2-DIMETHYLOXIRANE

> <preferred_name>
Oxirane, 2,2-dimethyl-

> <iupac>
2,2-Dimethyloxirane

> <SMILES>
CC1(C)CO1

> <Canonical_QSARr>
CC1(C)CO1

> <InChI_Code_QSARr>
InChI=1S/C4H8O/c1-4(2)3-5-4/h3H2,1-2H3

> <InChI Key_QSARr>
GELKGHVAFRCJNA-UHFFFAOYSA-N

> <Salt_Solvent>
?

> <WS Temperature>
20

> <WS Reference>
BEILSTEIN

> <dsstox_substance_id>
DTXSID7060330

> <LogMolar>
-0.0946

$$$$
562-49-2
  -INDIGO-01081615412D

 23 22  0  0  0  0  0  0  0  0999 V2000
    3.2001    0.0000    0.0000 C   0  0  0  0  0  0  0  0  0  0  0  0
    1.6000    0.0000    0.0000 C   0  0  0  0  0  0  0  0  0  0  0  0
    0.0001    0.0000    0.0000 C   0  0  0  0  0  0  0  0  0  0  0  0
   -1.6000   -0.0000    0.0000 C   0  0  0  0  0  0  0  0  0  0  0  0
   -3.1999   -0.0000    0.0000 C   0  0  0  0  0  0  0  0  0  0  0  0
   -4.8000   -0.0000    0.0000 H   0  0  0  0  0  0  0  0  0  0  0  0
   -4.0000   -1.3856    0.0000 H   0  0  0  0  0  0  0  0  0  0  0  0
   -4.0000    1.3856    0.0000 H   0  0  0  0  0  0  0  0  0  0  0  0
   -1.6000   -1.6000    0.0000 H   0  0  0  0  0  0  0  0  0  0  0  0
   -1.8779    1.5757    0.0000 H   0  0  0  0  0  0  0  0  0  0  0  0
    0.0001    1.6000    0.0000 C   0  0  0  0  0  0  0  0  0  0  0  0
   -0.0001    3.2000    0.0000 H   0  0  0  0  0  0  0  0  0  0  0  0
    1.2257    2.6285    0.0000 H   0  0  0  0  0  0  0  0  0  0  0  0
   -1.2257    2.6285    0.0000 H   0  0  0  0  0  0  0  0  0  0  0  0
    0.0001   -1.6000    0.0000 C   0  0  0  0  0  0  0  0  0  0  0  0
    0.0001   -3.2000    0.0000 H   0  0  0  0  0  0  0  0  0  0  0  0
   -1.2257   -2.6285    0.0000 H   0  0  0  0  0  0  0  0  0  0  0  0
    1.2257   -2.6285    0.0000 H   0  0  0  0  0  0  0  0  0  0  0  0
    1.6000   -1.6000    0.0000 H   0  0  0  0  0  0  0  0  0  0  0  0
    1.6000    1.6000    0.0000 H   0  0  0  0  0  0  0  0  0  0  0  0
    4.8000    0.0000    0.0000 H   0  0  0  0  0  0  0  0  0  0  0  0
    4.0000   -1.3856    0.0000 H   0  0  0  0  0  0  0  0  0  0  0  0
    4.0000    1.3856    0.0000 H   0  0  0  0  0  0  0  0  0  0  0  0
  1  2  1  0  0  0  0
  2  3  1  0  0  0  0
  3  4  1  0  0  0  0
  4  5  1  0  0  0  0
  5  6  1  0  0  0  0
  5  7  1  0  0  0  0
  5  8  1  0  0  0  0
  4  9  1  0  0  0  0
  4 10  1  0  0  0  0
  3 11  1  0  0  0  0
 11 12  1  0  0  0  0
 11 13  1  0  0  0  0
 11 14  1  0  0  0  0
  3 15  1  0  0  0  0
 15 16  1  0  0  0  0
 15 17  1  0  0  0  0
 15 18  1  0  0  0  0
  2 19  1  0  0  0  0
  2 20  1  0  0  0  0
  1 21  1  0  0  0  0
  1 22  1  0  0  0  0
  1 23  1  0  0  0  0
M  END
> <CAS>
562-49-2

> <NAME>
3,3-DIMETHYLPENTANE

> <preferred_name>
Pentane,3,3-dimethyl-

> <iupac>
3,3-dimethylpentane

> <SMILES>
CC(C)(CC)CC

> <Canonical_QSARr>
CC(C)(CC)CC

> <InChI_Code_QSARr>
InChI=1S/C7H16/c1-5-7(3,4)6-2/h5-6H2,1-4H3

> <InChI Key_QSARr>
AEXMKKGTQYQZCS-UHFFFAOYSA-N

> <Salt_Solvent>
?

> <WS Temperature>
25

> <WS Reference>
YALKOWSKY,SH & DANNENFELSER,RM (1992)

> <dsstox_substance_id>
DTXSID0049319

> <LogMolar>
-4.2286

$$$$
563-47-3
  -INDIGO-01081615412D

 12 11  0  0  0  0  0  0  0  0999 V2000
    1.3856    0.8000    0.0000 C   0  0  0  0  0  0  0  0  0  0  0  0
   -0.0000    0.0000    0.0000 C   0  0  0  0  0  0  0  0  0  0  0  0
   -1.3856    0.8000    0.0000 C   0  0  0  0  0  0  0  0  0  0  0  0
   -2.7713    1.6000    0.0000 Cl  0  0  0  0  0  0  0  0  0  0  0  0
   -2.7713    0.0000    0.0000 H   0  0  0  0  0  0  0  0  0  0  0  0
   -1.3856    2.4000    0.0000 H   0  0  0  0  0  0  0  0  0  0  0  0
    0.0000   -1.6000    0.0000 C   0  0  0  0  0  0  0  0  0  0  0  0
    1.3856   -2.4000    0.0000 H   0  0  0  0  0  0  0  0  0  0  0  0
   -1.3856   -2.4000    0.0000 H   0  0  0  0  0  0  0  0  0  0  0  0
    2.7713    1.6000    0.0000 H   0  0  0  0  0  0  0  0  0  0  0  0
    2.7713    0.0000    0.0000 H   0  0  0  0  0  0  0  0  0  0  0  0
    1.3856    2.4000    0.0000 H   0  0  0  0  0  0  0  0  0  0  0  0
  1  2  1  0  0  0  0
  2  3  1  0  0  0  0
  3  4  1  0  0  0  0
  3  5  1  0  0  0  0
  3  6  1  0  0  0  0
  2  7  2  0  0  0  0
  7  8  1  0  0  0  0
  7  9  1  0  0  0  0
  1 10  1  0  0  0  0
  1 11  1  0  0  0  0
  1 12  1  0  0  0  0
M  END
> <CAS>
563-47-3

> <NAME>
3-CHLORO-2-METHYLPROPENE

> <preferred_name>
3-Chloro-2-methylpropene

> <iupac>
3-chloro-2-methylprop-1-ene

> <SMILES>
CC(=C)CCl

> <Canonical_QSARr>
CC(=C)CCl

> <InChI_Code_QSARr>
InChI=1S/C4H7Cl/c1-4(2)3-5/h1,3H2,2H3

> <InChI Key_QSARr>
OHXAOPZTJOUYKM-UHFFFAOYSA-N

> <Salt_Solvent>
?

> <WS Temperature>
25

> <WS Reference>
CHEMICALS INSPECTION AND TESTING INSTITU (1992)

> <dsstox_substance_id>
DTXSID1020279

> <LogMolar>
-1.8108

$$$$
564-02-3
  -INDIGO-01081615412D

 26 25  0  0  0  0  0  0  0  0999 V2000
   -0.0000    0.0000    0.0000 C   0  0  0  0  0  0  0  0  0  0  0  0
   -1.6000   -0.0000    0.0000 C   0  0  0  0  0  0  0  0  0  0  0  0
   -3.2000   -0.0000    0.0000 H   0  0  0  0  0  0  0  0  0  0  0  0
   -2.4000    1.3856    0.0000 H   0  0  0  0  0  0  0  0  0  0  0  0
   -2.4000   -1.3856    0.0000 H   0  0  0  0  0  0  0  0  0  0  0  0
   -0.0000    1.6000    0.0000 C   0  0  0  0  0  0  0  0  0  0  0  0
   -0.0000    3.2000    0.0000 H   0  0  0  0  0  0  0  0  0  0  0  0
   -1.3856    2.4000    0.0000 H   0  0  0  0  0  0  0  0  0  0  0  0
    1.2256    2.6285    0.0000 H   0  0  0  0  0  0  0  0  0  0  0  0
   -0.0000   -1.6000    0.0000 C   0  0  0  0  0  0  0  0  0  0  0  0
   -0.0000   -3.2000    0.0000 H   0  0  0  0  0  0  0  0  0  0  0  0
   -1.3856   -2.4000    0.0000 H   0  0  0  0  0  0  0  0  0  0  0  0
    1.3856   -2.4000    0.0000 H   0  0  0  0  0  0  0  0  0  0  0  0
    1.6000    0.0000    0.0000 C   0  0  0  0  0  0  0  0  0  0  0  0
    1.8778   -1.5757    0.0000 C   0  0  0  0  0  0  0  0  0  0  0  0
    2.1557   -3.1514    0.0000 H   0  0  0  0  0  0  0  0  0  0  0  0
    3.3814   -2.1229    0.0000 H   0  0  0  0  0  0  0  0  0  0  0  0
    3.1035   -0.5472    0.0000 H   0  0  0  0  0  0  0  0  0  0  0  0
    3.1035    0.5472    0.0000 C   0  0  0  0  0  0  0  0  0  0  0  0
    4.6070    1.0945    0.0000 C   0  0  0  0  0  0  0  0  0  0  0  0
    6.1105    1.6417    0.0000 H   0  0  0  0  0  0  0  0  0  0  0  0
    4.8849    2.6701    0.0000 H   0  0  0  0  0  0  0  0  0  0  0  0
    5.8326    0.0660    0.0000 H   0  0  0  0  0  0  0  0  0  0  0  0
    2.5562    2.0508    0.0000 H   0  0  0  0  0  0  0  0  0  0  0  0
    4.3291   -0.4812    0.0000 H   0  0  0  0  0  0  0  0  0  0  0  0
    1.3222    1.5757    0.0000 H   0  0  0  0  0  0  0  0  0  0  0  0
  1  2  1  0  0  0  0
  2  3  1  0  0  0  0
  2  4  1  0  0  0  0
  2  5  1  0  0  0  0
  1  6  1  0  0  0  0
  6  7  1  0  0  0  0
  6  8  1  0  0  0  0
  6  9  1  0  0  0  0
  1 10  1  0  0  0  0
 10 11  1  0  0  0  0
 10 12  1  0  0  0  0
 10 13  1  0  0  0  0
  1 14  1  0  0  0  0
 14 15  1  0  0  0  0
 15 16  1  0  0  0  0
 15 17  1  0  0  0  0
 15 18  1  0  0  0  0
 14 19  1  0  0  0  0
 19 20  1  0  0  0  0
 20 21  1  0  0  0  0
 20 22  1  0  0  0  0
 20 23  1  0  0  0  0
 19 24  1  0  0  0  0
 19 25  1  0  0  0  0
 14 26  1  0  0  0  0
M  END
> <CAS>
564-02-3

> <NAME>
2,2,3-TRIMETHYLPENTANE

> <preferred_name>
PUBCHEM_22810197

> <iupac>
C8H18

> <SMILES>
CC[C@H](C)C(C)(C)C

> <Canonical_QSARr>
CCC(C)C(C)(C)C

> <InChI_Code_QSARr>
InChI=1S/C8H18/c1-6-7(2)8(3,4)5/h7H,6H2,1-5H3

> <InChI Key_QSARr>
XTDQDBVBDLYELW-UHFFFAOYSA-N

> <Salt_Solvent>
?

> <WS Temperature>
25

> <WS Reference>
RIDDICK,JA ET AL. (1986)

> <dsstox_substance_id>
DTXSID80628408

> <LogMolar>
-4.6776

$$$$
565-59-3
  -INDIGO-01081615412D

 23 22  0  0  0  0  0  0  0  0999 V2000
    1.8535   -1.8535    0.0000 C   0  0  0  0  0  0  0  0  0  0  0  0
    1.5757   -0.2778    0.0000 C   0  0  0  0  0  0  0  0  0  0  0  0
    3.1515    0.0000    0.0000 C   0  0  0  0  0  0  0  0  0  0  0  0
    4.7271    0.2778    0.0000 H   0  0  0  0  0  0  0  0  0  0  0  0
    4.1799   -1.2257    0.0000 H   0  0  0  0  0  0  0  0  0  0  0  0
    3.6986    1.5035    0.0000 H   0  0  0  0  0  0  0  0  0  0  0  0
    0.0001    0.0000    0.0000 C   0  0  0  0  0  0  0  0  0  0  0  0
    0.0001    1.6000    0.0000 C   0  0  0  0  0  0  0  0  0  0  0  0
   -0.0001    3.2000    0.0000 H   0  0  0  0  0  0  0  0  0  0  0  0
   -1.3857    2.4000    0.0000 H   0  0  0  0  0  0  0  0  0  0  0  0
    1.3857    2.4000    0.0000 H   0  0  0  0  0  0  0  0  0  0  0  0
   -1.5757   -0.2778    0.0000 C   0  0  0  0  0  0  0  0  0  0  0  0
   -3.1515   -0.5557    0.0000 C   0  0  0  0  0  0  0  0  0  0  0  0
   -4.7271   -0.8335    0.0000 H   0  0  0  0  0  0  0  0  0  0  0  0
   -3.6986   -2.0592    0.0000 H   0  0  0  0  0  0  0  0  0  0  0  0
   -4.1799    0.6700    0.0000 H   0  0  0  0  0  0  0  0  0  0  0  0
   -1.2978   -1.8535    0.0000 H   0  0  0  0  0  0  0  0  0  0  0  0
   -1.8535    1.2979    0.0000 H   0  0  0  0  0  0  0  0  0  0  0  0
    0.0001   -1.6000    0.0000 H   0  0  0  0  0  0  0  0  0  0  0  0
    1.2978    1.2979    0.0000 H   0  0  0  0  0  0  0  0  0  0  0  0
    2.1314   -3.4292    0.0000 H   0  0  0  0  0  0  0  0  0  0  0  0
    3.3570   -2.4008    0.0000 H   0  0  0  0  0  0  0  0  0  0  0  0
    0.6279   -2.8820    0.0000 H   0  0  0  0  0  0  0  0  0  0  0  0
  1  2  1  0  0  0  0
  2  3  1  0  0  0  0
  3  4  1  0  0  0  0
  3  5  1  0  0  0  0
  3  6  1  0  0  0  0
  2  7  1  0  0  0  0
  7  8  1  0  0  0  0
  8  9  1  0  0  0  0
  8 10  1  0  0  0  0
  8 11  1  0  0  0  0
  7 12  1  0  0  0  0
 12 13  1  0  0  0  0
 13 14  1  0  0  0  0
 13 15  1  0  0  0  0
 13 16  1  0  0  0  0
 12 17  1  0  0  0  0
 12 18  1  0  0  0  0
  7 19  1  0  0  0  0
  2 20  1  0  0  0  0
  1 21  1  0  0  0  0
  1 22  1  0  0  0  0
  1 23  1  0  0  0  0
M  END
> <CAS>
565-59-3

> <NAME>
2,3-DIMETHYLPENTANE

> <preferred_name>


> <iupac>


> <SMILES>
CC(C)C(C)CC

> <Canonical_QSARr>
CC(C)C(C)CC

> <InChI_Code_QSARr>
InChI=1S/C7H16/c1-5-7(4)6(2)3/h6-7H,5H2,1-4H3

> <InChI Key_QSARr>
WGECXQBGLLYSFP-UHFFFAOYSA-N

> <Salt_Solvent>
?

> <WS Temperature>
25

> <WS Reference>
YALKOWSKY,SH & DANNENFELSER,RM (1992)

> <dsstox_substance_id>


> <LogMolar>
-4.2808

$$$$
565-69-5
  -INDIGO-01081615412D

 19 18  0  0  0  0  0  0  0  0999 V2000
    1.3857    0.8000    0.0000 C   0  0  0  0  0  0  0  0  0  0  0  0
    1.3857    2.4000    0.0000 O   0  0  0  0  0  0  0  0  0  0  0  0
    2.7713    0.0000    0.0000 C   0  0  0  0  0  0  0  0  0  0  0  0
    4.1570   -0.8000    0.0000 C   0  0  0  0  0  0  0  0  0  0  0  0
    5.5426   -1.6000    0.0000 H   0  0  0  0  0  0  0  0  0  0  0  0
    5.5426    0.0000    0.0000 H   0  0  0  0  0  0  0  0  0  0  0  0
    4.1570   -2.4000    0.0000 H   0  0  0  0  0  0  0  0  0  0  0  0
    3.5713    1.3856    0.0000 H   0  0  0  0  0  0  0  0  0  0  0  0
    1.9713   -1.3856    0.0000 H   0  0  0  0  0  0  0  0  0  0  0  0
    0.0000    0.0000    0.0000 C   0  0  0  0  0  0  0  0  0  0  0  0
   -1.3856   -0.8000    0.0000 C   0  0  0  0  0  0  0  0  0  0  0  0
   -2.7713   -1.6000    0.0000 H   0  0  0  0  0  0  0  0  0  0  0  0
   -2.7713    0.0000    0.0000 H   0  0  0  0  0  0  0  0  0  0  0  0
   -1.3857   -2.4000    0.0000 H   0  0  0  0  0  0  0  0  0  0  0  0
   -0.8000    1.3856    0.0000 C   0  0  0  0  0  0  0  0  0  0  0  0
   -1.6000    2.7713    0.0000 H   0  0  0  0  0  0  0  0  0  0  0  0
   -2.4000    1.3856    0.0000 H   0  0  0  0  0  0  0  0  0  0  0  0
    0.0000    2.7713    0.0000 H   0  0  0  0  0  0  0  0  0  0  0  0
    0.8000   -1.3856    0.0000 H   0  0  0  0  0  0  0  0  0  0  0  0
  1  2  2  0  0  0  0
  1  3  1  0  0  0  0
  3  4  1  0  0  0  0
  4  5  1  0  0  0  0
  4  6  1  0  0  0  0
  4  7  1  0  0  0  0
  3  8  1  0  0  0  0
  3  9  1  0  0  0  0
  1 10  1  0  0  0  0
 10 11  1  0  0  0  0
 11 12  1  0  0  0  0
 11 13  1  0  0  0  0
 11 14  1  0  0  0  0
 10 15  1  0  0  0  0
 15 16  1  0  0  0  0
 15 17  1  0  0  0  0
 15 18  1  0  0  0  0
 10 19  1  0  0  0  0
M  END
> <CAS>
565-69-5

> <NAME>
2-METHYL-3-PENTANONE

> <preferred_name>
2-Methyl-3-pentanone

> <iupac>
2-Methylpentan-3-one

> <SMILES>
CCC(=O)C(C)C

> <Canonical_QSARr>
CCC(=O)C(C)C

> <InChI_Code_QSARr>
InChI=1S/C6H12O/c1-4-6(7)5(2)3/h5H,4H2,1-3H3

> <InChI Key_QSARr>
HYTRYEXINDDXJK-UHFFFAOYSA-N

> <Salt_Solvent>
?

> <WS Temperature>
25

> <WS Reference>
SUZUKI,T (1991)

> <dsstox_substance_id>
DTXSID2073196

> <LogMolar>
-0.8106

$$$$
565-80-0
  -INDIGO-01081615412D

 22 21  0  0  0  0  0  0  0  0999 V2000
   -0.8000    1.3856    0.0000 C   0  0  0  0  0  0  0  0  0  0  0  0
    0.0000    0.0000    0.0000 C   0  0  0  0  0  0  0  0  0  0  0  0
   -1.3856   -0.8000    0.0000 C   0  0  0  0  0  0  0  0  0  0  0  0
   -2.7713   -1.6000    0.0000 H   0  0  0  0  0  0  0  0  0  0  0  0
   -2.7713    0.0000    0.0000 H   0  0  0  0  0  0  0  0  0  0  0  0
   -1.3857   -2.4000    0.0000 H   0  0  0  0  0  0  0  0  0  0  0  0
    1.3857    0.8000    0.0000 C   0  0  0  0  0  0  0  0  0  0  0  0
    1.3857    2.4000    0.0000 O   0  0  0  0  0  0  0  0  0  0  0  0
    2.7713    0.0000    0.0000 C   0  0  0  0  0  0  0  0  0  0  0  0
    4.1570   -0.8000    0.0000 C   0  0  0  0  0  0  0  0  0  0  0  0
    5.5426   -1.6000    0.0000 H   0  0  0  0  0  0  0  0  0  0  0  0
    5.5426    0.0000    0.0000 H   0  0  0  0  0  0  0  0  0  0  0  0
    4.1570   -2.4000    0.0000 H   0  0  0  0  0  0  0  0  0  0  0  0
    3.5713    1.3856    0.0000 C   0  0  0  0  0  0  0  0  0  0  0  0
    4.3713    2.7713    0.0000 H   0  0  0  0  0  0  0  0  0  0  0  0
    5.1712    1.3856    0.0000 H   0  0  0  0  0  0  0  0  0  0  0  0
    2.7713    2.7713    0.0000 H   0  0  0  0  0  0  0  0  0  0  0  0
    1.9713   -1.3856    0.0000 H   0  0  0  0  0  0  0  0  0  0  0  0
    0.8000   -1.3856    0.0000 H   0  0  0  0  0  0  0  0  0  0  0  0
   -1.6000    2.7713    0.0000 H   0  0  0  0  0  0  0  0  0  0  0  0
   -2.4000    1.3856    0.0000 H   0  0  0  0  0  0  0  0  0  0  0  0
    0.0000    2.7713    0.0000 H   0  0  0  0  0  0  0  0  0  0  0  0
  1  2  1  0  0  0  0
  2  3  1  0  0  0  0
  3  4  1  0  0  0  0
  3  5  1  0  0  0  0
  3  6  1  0  0  0  0
  2  7  1  0  0  0  0
  7  8  2  0  0  0  0
  7  9  1  0  0  0  0
  9 10  1  0  0  0  0
 10 11  1  0  0  0  0
 10 12  1  0  0  0  0
 10 13  1  0  0  0  0
  9 14  1  0  0  0  0
 14 15  1  0  0  0  0
 14 16  1  0  0  0  0
 14 17  1  0  0  0  0
  9 18  1  0  0  0  0
  2 19  1  0  0  0  0
  1 20  1  0  0  0  0
  1 21  1  0  0  0  0
  1 22  1  0  0  0  0
M  END
> <CAS>
565-80-0

> <NAME>
2,4-DIMETHYL-3-PENTANONE

> <preferred_name>
2,4-Dimethylpentan-3-one

> <iupac>
2,4-dimethylpentan-3-one

> <SMILES>
CC(C)C(=O)C(C)C

> <Canonical_QSARr>
CC(C)C(=O)C(C)C

> <InChI_Code_QSARr>
InChI=1S/C7H14O/c1-5(2)7(8)6(3)4/h5-6H,1-4H3

> <InChI Key_QSARr>
HXVNBWAKAOHACI-UHFFFAOYSA-N

> <Salt_Solvent>
?

> <WS Temperature>
25

> <WS Reference>
YALKOWSKY,SH & DANNENFELSER,RM (1992)

> <dsstox_substance_id>
DTXSID3038771

> <LogMolar>
-1.3018

$$$$
570-22-9
  -INDIGO-01081615412D

 15 15  0  0  0  0  0  0  0  0999 V2000
   -0.2897    2.7561    0.0000 O   0  0  0  0  0  0  0  0  0  0  0  0
    0.6508    1.4617    0.0000 C   0  0  0  0  0  0  0  0  0  0  0  0
    0.0001   -0.0000    0.0000 C   0  0  0  0  0  0  0  0  0  0  0  0
   -1.5651   -0.3326    0.0000 C   0  0  0  0  0  0  0  0  0  0  0  0
   -2.7540    0.7380    0.0000 C   0  0  0  0  0  0  0  0  0  0  0  0
   -4.2757    0.2435    0.0000 O   0  0  0  0  0  0  0  0  0  0  0  0
   -5.4648    1.3141    0.0000 H   0  0  0  0  0  0  0  0  0  0  0  0
   -2.4214    2.3030    0.0000 O   0  0  0  0  0  0  0  0  0  0  0  0
   -1.7323   -1.9239    0.0000 N   0  0  0  1  0  0  0  0  0  0  0  0
   -0.2706   -2.5747    0.0000 C   0  0  0  0  0  0  0  0  0  0  0  0
    0.0620   -4.1397    0.0000 H   0  0  0  0  0  0  0  0  0  0  0  0
    0.8000   -1.3856    0.0000 N   0  0  0  1  0  0  0  0  0  0  0  0
    2.3912   -1.5529    0.0000 H   0  0  0  0  0  0  0  0  0  0  0  0
    2.2420    1.6289    0.0000 O   0  0  0  0  0  0  0  0  0  0  0  0
    2.8928    3.0906    0.0000 H   0  0  0  0  0  0  0  0  0  0  0  0
  1  2  2  0  0  0  0
  2  3  1  0  0  0  0
  3  4  4  0  0  0  0
  4  5  1  0  0  0  0
  5  6  1  0  0  0  0
  6  7  1  0  0  0  0
  5  8  2  0  0  0  0
  4  9  4  0  0  0  0
  9 10  4  0  0  0  0
 10 11  1  0  0  0  0
 10 12  4  0  0  0  0
 12  3  4  0  0  0  0
 12 13  1  0  0  0  0
  2 14  1  0  0  0  0
 14 15  1  0  0  0  0
M  END
> <CAS>
570-22-9

> <NAME>
1H-IMIDAZOLE-4,5-DICARBOXYLIC ACID

> <preferred_name>
1H-Imidazole-4,5-dicarboxylic acid

> <iupac>
1H-Imidazole-4,5-dicarboxylic acid

> <SMILES>
OC(=O)c1[nH]c[n]c1C(O)=O

> <Canonical_QSARr>
OC(=O)c1[nH]c[n]c1C(O)=O

> <InChI_Code_QSARr>
InChI=1S/C5H4N2O4/c8-4(9)2-3(5(10)11)7-1-6-2/h1H,(H,6,7)(H,8,9)(H,10,11)

> <InChI Key_QSARr>
ZEVWQFWTGHFIDH-UHFFFAOYSA-N

> <Salt_Solvent>
?

> <WS Temperature>
20

> <WS Reference>
YALKOWSKY,SH & DANNENFELSER,RM (1992)

> <dsstox_substance_id>
DTXSID6060349

> <LogMolar>
-2.4944

$$$$
575-89-3
  -INDIGO-01081615412D

 19 19  0  0  0  0  0  0  0  0999 V2000
   -1.3856    2.4000    0.0000 Cl  0  0  0  0  0  0  0  0  0  0  0  0
   -1.3856    0.8000    0.0000 C   0  0  0  0  0  0  0  0  0  0  0  0
   -2.7713   -0.0000    0.0000 C   0  0  0  0  0  0  0  0  0  0  0  0
   -4.1569    0.8000    0.0000 H   0  0  0  0  0  0  0  0  0  0  0  0
   -2.7713   -1.6000    0.0000 C   0  0  0  0  0  0  0  0  0  0  0  0
   -4.1569   -2.4000    0.0000 Cl  0  0  0  0  0  0  0  0  0  0  0  0
   -1.3856   -2.4000    0.0000 C   0  0  0  0  0  0  0  0  0  0  0  0
   -1.3856   -4.0000    0.0000 H   0  0  0  0  0  0  0  0  0  0  0  0
    0.0001   -1.6000    0.0000 C   0  0  0  0  0  0  0  0  0  0  0  0
    1.3857   -2.4000    0.0000 Cl  0  0  0  0  0  0  0  0  0  0  0  0
    0.0001   -0.0000    0.0000 C   0  0  0  0  0  0  0  0  0  0  0  0
    1.3857    0.8000    0.0000 O   0  0  0  0  0  0  0  0  0  0  0  0
    2.7712   -0.0000    0.0000 C   0  0  0  0  0  0  0  0  0  0  0  0
    4.1569   -0.8000    0.0000 C   0  0  0  0  0  0  0  0  0  0  0  0
    4.1569   -2.4000    0.0000 O   0  0  0  0  0  0  0  0  0  0  0  0
    5.5425   -0.0000    0.0000 O   0  0  0  0  0  0  0  0  0  0  0  0
    6.9282   -0.8000    0.0000 H   0  0  0  0  0  0  0  0  0  0  0  0
    3.5713    1.3856    0.0000 H   0  0  0  0  0  0  0  0  0  0  0  0
    1.9713   -1.3856    0.0000 H   0  0  0  0  0  0  0  0  0  0  0  0
  1  2  1  0  0  0  0
  2  3  4  0  0  0  0
  3  4  1  0  0  0  0
  3  5  4  0  0  0  0
  5  6  1  0  0  0  0
  5  7  4  0  0  0  0
  7  8  1  0  0  0  0
  7  9  4  0  0  0  0
  9 10  1  0  0  0  0
  9 11  4  0  0  0  0
 11  2  4  0  0  0  0
 11 12  1  0  0  0  0
 12 13  1  0  0  0  0
 13 14  1  0  0  0  0
 14 15  2  0  0  0  0
 14 16  1  0  0  0  0
 16 17  1  0  0  0  0
 13 18  1  0  0  0  0
 13 19  1  0  0  0  0
M  END
> <CAS>
575-89-3

> <NAME>
2,4,6-TRICHLOROPHENOXYACETIC ACID

> <preferred_name>
2,4,6-Trichlorophenoxyacetic acid

> <iupac>
2-(2,4,6-trichlorophenoxy)acetic acid

> <SMILES>
OC(=O)COc1c(Cl)cc(Cl)cc1Cl

> <Canonical_QSARr>
OC(=O)COc1c(Cl)cc(Cl)cc1Cl

> <InChI_Code_QSARr>
InChI=1S/C8H5Cl3O3/c9-4-1-5(10)8(6(11)2-4)14-3-7(12)13/h1-2H,3H2,(H,12,13)

> <InChI Key_QSARr>
KZDCLQBOHGBWOI-UHFFFAOYSA-N

> <Salt_Solvent>
?

> <WS Temperature>
25

> <WS Reference>
YALKOWSKY,SH & DANNENFELSER,RM (1992)

> <dsstox_substance_id>
DTXSID70206113

> <LogMolar>
-3.0133

$$$$
579-07-7
  -INDIGO-01081615412D

 19 19  0  0  0  0  0  0  0  0999 V2000
    0.0000   -0.0000    0.0000 C   0  0  0  0  0  0  0  0  0  0  0  0
   -0.8000    1.3856    0.0000 C   0  0  0  0  0  0  0  0  0  0  0  0
    0.0000    2.7713    0.0000 H   0  0  0  0  0  0  0  0  0  0  0  0
   -2.4001    1.3856    0.0000 C   0  0  0  0  0  0  0  0  0  0  0  0
   -3.2000    2.7713    0.0000 H   0  0  0  0  0  0  0  0  0  0  0  0
   -3.2000   -0.0000    0.0000 C   0  0  0  0  0  0  0  0  0  0  0  0
   -4.8000   -0.0000    0.0000 H   0  0  0  0  0  0  0  0  0  0  0  0
   -2.4001   -1.3856    0.0000 C   0  0  0  0  0  0  0  0  0  0  0  0
   -3.2000   -2.7713    0.0000 H   0  0  0  0  0  0  0  0  0  0  0  0
   -0.8000   -1.3856    0.0000 C   0  0  0  0  0  0  0  0  0  0  0  0
    0.0000   -2.7713    0.0000 H   0  0  0  0  0  0  0  0  0  0  0  0
    1.6000    0.0000    0.0000 C   0  0  0  0  0  0  0  0  0  0  0  0
    2.3999    1.3856    0.0000 O   0  0  0  0  0  0  0  0  0  0  0  0
    2.3999   -1.3856    0.0000 C   0  0  0  0  0  0  0  0  0  0  0  0
    1.6000   -2.7713    0.0000 O   0  0  0  0  0  0  0  0  0  0  0  0
    4.0001   -1.3856    0.0000 C   0  0  0  0  0  0  0  0  0  0  0  0
    5.6000   -1.3856    0.0000 H   0  0  0  0  0  0  0  0  0  0  0  0
    4.8000   -2.7713    0.0000 H   0  0  0  0  0  0  0  0  0  0  0  0
    4.8000    0.0000    0.0000 H   0  0  0  0  0  0  0  0  0  0  0  0
  1  2  4  0  0  0  0
  2  3  1  0  0  0  0
  2  4  4  0  0  0  0
  4  5  1  0  0  0  0
  4  6  4  0  0  0  0
  6  7  1  0  0  0  0
  6  8  4  0  0  0  0
  8  9  1  0  0  0  0
  8 10  4  0  0  0  0
 10  1  4  0  0  0  0
 10 11  1  0  0  0  0
  1 12  1  0  0  0  0
 12 13  2  0  0  0  0
 12 14  1  0  0  0  0
 14 15  2  0  0  0  0
 14 16  1  0  0  0  0
 16 17  1  0  0  0  0
 16 18  1  0  0  0  0
 16 19  1  0  0  0  0
M  END
> <CAS>
579-07-7

> <NAME>
1,2-Propanedione, 1-phenyl-

> <preferred_name>
1,2-Propanedione, 1-phenyl-

> <iupac>
1-Phenylpropane-1,2-dione

> <SMILES>
CC(=O)C(=O)c1ccccc1

> <Canonical_QSARr>
CC(=O)C(=O)c1ccccc1

> <InChI_Code_QSARr>
InChI=1S/C9H8O2/c1-7(10)9(11)8-5-3-2-4-6-8/h2-6H,1H3

> <InChI Key_QSARr>
BVQVLAIMHVDZEL-UHFFFAOYSA-N

> <Salt_Solvent>
?

> <WS Temperature>
20

> <WS Reference>
BEILSTEIN

> <dsstox_substance_id>
DTXSID3060372

> <LogMolar>
-1.7558

$$$$
580-13-2
  -INDIGO-01081615412D

 18 19  0  0  0  0  0  0  0  0999 V2000
    0.0001   -0.0000    0.0000 C   0  0  0  0  0  0  0  0  0  0  0  0
   -1.3856    0.8000    0.0000 C   0  0  0  0  0  0  0  0  0  0  0  0
   -1.3856    2.4000    0.0000 H   0  0  0  0  0  0  0  0  0  0  0  0
   -2.7712   -0.0000    0.0000 C   0  0  0  0  0  0  0  0  0  0  0  0
   -4.1569    0.8000    0.0000 H   0  0  0  0  0  0  0  0  0  0  0  0
   -2.7712   -1.6000    0.0000 C   0  0  0  0  0  0  0  0  0  0  0  0
   -4.1569   -2.4000    0.0000 H   0  0  0  0  0  0  0  0  0  0  0  0
   -1.3856   -2.4000    0.0000 C   0  0  0  0  0  0  0  0  0  0  0  0
   -1.3856   -4.0000    0.0000 H   0  0  0  0  0  0  0  0  0  0  0  0
    0.0001   -1.6000    0.0000 C   0  0  0  0  0  0  0  0  0  0  0  0
    1.3856   -2.4000    0.0000 C   0  0  0  0  0  0  0  0  0  0  0  0
    1.3856   -4.0000    0.0000 H   0  0  0  0  0  0  0  0  0  0  0  0
    2.7713   -1.6000    0.0000 C   0  0  0  0  0  0  0  0  0  0  0  0
    4.1569   -2.4000    0.0000 H   0  0  0  0  0  0  0  0  0  0  0  0
    2.7713   -0.0000    0.0000 C   0  0  0  0  0  0  0  0  0  0  0  0
    4.1569    0.8000    0.0000 Br  0  0  0  0  0  0  0  0  0  0  0  0
    1.3856    0.8000    0.0000 C   0  0  0  0  0  0  0  0  0  0  0  0
    1.3856    2.4000    0.0000 H   0  0  0  0  0  0  0  0  0  0  0  0
  1  2  4  0  0  0  0
  2  3  1  0  0  0  0
  2  4  4  0  0  0  0
  4  5  1  0  0  0  0
  4  6  4  0  0  0  0
  6  7  1  0  0  0  0
  6  8  4  0  0  0  0
  8  9  1  0  0  0  0
  8 10  4  0  0  0  0
 10  1  4  0  0  0  0
 10 11  4  0  0  0  0
 11 12  1  0  0  0  0
 11 13  4  0  0  0  0
 13 14  1  0  0  0  0
 13 15  4  0  0  0  0
 15 16  1  0  0  0  0
 15 17  4  0  0  0  0
 17  1  4  0  0  0  0
 17 18  1  0  0  0  0
M  END
> <CAS>
580-13-2

> <NAME>
2-BROMONAPHTHALENE

> <preferred_name>
Naphthalene, 2-bromo-

> <iupac>
2-Bromonaphthalene

> <SMILES>
Brc1cc2ccccc2cc1

> <Canonical_QSARr>
Brc1cc2ccccc2cc1

> <InChI_Code_QSARr>
InChI=1S/C10H7Br/c11-10-6-5-8-3-1-2-4-9(8)7-10/h1-7H

> <InChI Key_QSARr>
APSMUYYLXZULMS-UHFFFAOYSA-N

> <Salt_Solvent>
?

> <WS Temperature>
25

> <WS Reference>
KUHNE,R ET AL. (1995)

> <dsstox_substance_id>
DTXSID3060378

> <LogMolar>
-4.4001

$$$$
580-48-3
  -INDIGO-01081615412D

 37 37  0  0  0  0  0  0  0  0999 V2000
   -1.3856   -0.8000    0.0000 C   0  0  0  0  0  0  0  0  0  0  0  0
   -2.7712    0.0001    0.0000 N   0  0  0  1  0  0  0  0  0  0  0  0
   -4.1569   -0.8000    0.0000 C   0  0  0  0  0  0  0  0  0  0  0  0
   -5.5425    0.0001    0.0000 N   0  0  0  0  0  0  0  0  0  0  0  0
   -6.9282   -0.8000    0.0000 C   0  0  0  0  0  0  0  0  0  0  0  0
   -8.3139   -1.6000    0.0000 C   0  0  0  0  0  0  0  0  0  0  0  0
   -9.6995   -2.4000    0.0000 H   0  0  0  0  0  0  0  0  0  0  0  0
   -9.6995   -0.8000    0.0000 H   0  0  0  0  0  0  0  0  0  0  0  0
   -8.3139   -3.1999    0.0000 H   0  0  0  0  0  0  0  0  0  0  0  0
   -7.7283    0.5856    0.0000 H   0  0  0  0  0  0  0  0  0  0  0  0
   -6.1281   -2.1857    0.0000 H   0  0  0  0  0  0  0  0  0  0  0  0
   -5.5425    1.6000    0.0000 C   0  0  0  0  0  0  0  0  0  0  0  0
   -5.5425    3.2001    0.0000 C   0  0  0  0  0  0  0  0  0  0  0  0
   -5.5425    4.8000    0.0000 H   0  0  0  0  0  0  0  0  0  0  0  0
   -6.9282    4.0000    0.0000 H   0  0  0  0  0  0  0  0  0  0  0  0
   -4.1569    4.0000    0.0000 H   0  0  0  0  0  0  0  0  0  0  0  0
   -3.9425    1.6000    0.0000 H   0  0  0  0  0  0  0  0  0  0  0  0
   -7.1426    1.6000    0.0000 H   0  0  0  0  0  0  0  0  0  0  0  0
   -4.1569   -2.4000    0.0000 N   0  0  0  1  0  0  0  0  0  0  0  0
   -2.7712   -3.1999    0.0000 C   0  0  0  0  0  0  0  0  0  0  0  0
   -2.7712   -4.8000    0.0000 Cl  0  0  0  0  0  0  0  0  0  0  0  0
   -1.3856   -2.4000    0.0000 N   0  0  0  1  0  0  0  0  0  0  0  0
    0.0001    0.0001    0.0000 N   0  0  0  0  0  0  0  0  0  0  0  0
    1.3856   -0.8000    0.0000 C   0  0  0  0  0  0  0  0  0  0  0  0
    2.7714   -1.6000    0.0000 C   0  0  0  0  0  0  0  0  0  0  0  0
    4.1569   -2.4000    0.0000 H   0  0  0  0  0  0  0  0  0  0  0  0
    4.1569   -0.8000    0.0000 H   0  0  0  0  0  0  0  0  0  0  0  0
    2.7714   -3.1999    0.0000 H   0  0  0  0  0  0  0  0  0  0  0  0
    2.1857    0.5856    0.0000 H   0  0  0  0  0  0  0  0  0  0  0  0
    0.5856   -2.1857    0.0000 H   0  0  0  0  0  0  0  0  0  0  0  0
   -0.0001    1.6000    0.0000 C   0  0  0  0  0  0  0  0  0  0  0  0
   -0.0001    3.2001    0.0000 C   0  0  0  0  0  0  0  0  0  0  0  0
   -0.0001    4.8000    0.0000 H   0  0  0  0  0  0  0  0  0  0  0  0
    1.3856    4.0000    0.0000 H   0  0  0  0  0  0  0  0  0  0  0  0
   -1.3856    4.0000    0.0000 H   0  0  0  0  0  0  0  0  0  0  0  0
    1.6000    1.6000    0.0000 H   0  0  0  0  0  0  0  0  0  0  0  0
   -1.6000    1.6000    0.0000 H   0  0  0  0  0  0  0  0  0  0  0  0
  1  2  4  0  0  0  0
  2  3  4  0  0  0  0
  3  4  1  0  0  0  0
  4  5  1  0  0  0  0
  5  6  1  0  0  0  0
  6  7  1  0  0  0  0
  6  8  1  0  0  0  0
  6  9  1  0  0  0  0
  5 10  1  0  0  0  0
  5 11  1  0  0  0  0
  4 12  1  0  0  0  0
 12 13  1  0  0  0  0
 13 14  1  0  0  0  0
 13 15  1  0  0  0  0
 13 16  1  0  0  0  0
 12 17  1  0  0  0  0
 12 18  1  0  0  0  0
  3 19  4  0  0  0  0
 19 20  4  0  0  0  0
 20 21  1  0  0  0  0
 20 22  4  0  0  0  0
 22  1  4  0  0  0  0
  1 23  1  0  0  0  0
 23 24  1  0  0  0  0
 24 25  1  0  0  0  0
 25 26  1  0  0  0  0
 25 27  1  0  0  0  0
 25 28  1  0  0  0  0
 24 29  1  0  0  0  0
 24 30  1  0  0  0  0
 23 31  1  0  0  0  0
 31 32  1  0  0  0  0
 32 33  1  0  0  0  0
 32 34  1  0  0  0  0
 32 35  1  0  0  0  0
 31 36  1  0  0  0  0
 31 37  1  0  0  0  0
M  END
> <CAS>
580-48-3

> <NAME>
CHLORAZINE

> <preferred_name>
Chlorazine

> <iupac>
6-chloro-N,N,N',N'-tetraethyl-1,3,5-triazine-2,4-diamine

> <SMILES>
CCN(CC)c1[n]c(Cl)[n]c([n]1)N(CC)CC

> <Canonical_QSARr>
CCN(CC)c1[n]c(Cl)[n]c([n]1)N(CC)CC

> <InChI_Code_QSARr>
InChI=1S/C11H20ClN5/c1-5-16(6-2)10-13-9(12)14-11(15-10)17(7-3)8-4/h5-8H2,1-4H3

> <InChI Key_QSARr>
QHXDTLYEHWXDSO-UHFFFAOYSA-N

> <Salt_Solvent>
?

> <WS Temperature>
21

> <WS Reference>
YALKOWSKY,SH & DANNENFELSER,RM (1992)

> <dsstox_substance_id>
DTXSID6041765

> <LogMolar>
-4.4112

$$$$
581-49-7
  -INDIGO-01081615412D

 24 25  0  0  0  0  0  0  0  0999 V2000
   -0.8000    1.3857    0.0000 N   0  0  0  0  0  0  0  0  0  0  0  0
   -2.4000    1.3857    0.0000 C   0  0  0  0  0  0  0  0  0  0  0  0
   -2.1222    2.9613    0.0000 H   0  0  0  0  0  0  0  0  0  0  0  0
   -3.9035    1.9328    0.0000 H   0  0  0  0  0  0  0  0  0  0  0  0
   -3.2000   -0.0000    0.0000 C   0  0  0  0  0  0  0  0  0  0  0  0
   -4.8000   -0.0000    0.0000 H   0  0  0  0  0  0  0  0  0  0  0  0
   -2.4000   -1.3857    0.0000 C   0  0  0  0  0  0  0  0  0  0  0  0
   -3.2000   -2.7712    0.0000 H   0  0  0  0  0  0  0  0  0  0  0  0
   -0.8000   -1.3857    0.0000 C   0  0  0  0  0  0  0  0  0  0  0  0
   -1.0778   -2.9613    0.0000 H   0  0  0  0  0  0  0  0  0  0  0  0
    0.7035   -1.9329    0.0000 H   0  0  0  0  0  0  0  0  0  0  0  0
   -0.0001   -0.0000    0.0000 C   0  0  0  0  0  0  0  0  0  0  0  0
    1.3856    0.8000    0.0000 C   0  0  0  0  0  0  0  0  0  0  0  0
    1.6634    2.3757    0.0000 C   0  0  0  0  0  0  0  0  0  0  0  0
    0.8635    3.7613    0.0000 H   0  0  0  0  0  0  0  0  0  0  0  0
    3.1669    2.9229    0.0000 N   0  0  0  1  0  0  0  0  0  0  0  0
    4.3926    1.8945    0.0000 C   0  0  0  0  0  0  0  0  0  0  0  0
    5.8962    2.4417    0.0000 H   0  0  0  0  0  0  0  0  0  0  0  0
    4.1149    0.3188    0.0000 C   0  0  0  0  0  0  0  0  0  0  0  0
    5.3404   -0.7097    0.0000 H   0  0  0  0  0  0  0  0  0  0  0  0
    2.6113   -0.2285    0.0000 C   0  0  0  0  0  0  0  0  0  0  0  0
    2.3336   -1.8041    0.0000 H   0  0  0  0  0  0  0  0  0  0  0  0
    1.2257   -1.0285    0.0000 H   0  0  0  0  0  0  0  0  0  0  0  0
   -0.0001    2.7713    0.0000 H   0  0  0  0  0  0  0  0  0  0  0  0
  1  2  1  0  0  0  0
  2  3  1  0  0  0  0
  2  4  1  0  0  0  0
  2  5  1  0  0  0  0
  5  6  1  0  0  0  0
  5  7  2  0  0  0  0
  7  8  1  0  0  0  0
  7  9  1  0  0  0  0
  9 10  1  0  0  0  0
  9 11  1  0  0  0  0
  9 12  1  0  0  0  0
 12  1  1  0  0  0  0
 12 13  1  0  0  0  0
 13 14  4  0  0  0  0
 14 15  1  0  0  0  0
 14 16  4  0  0  0  0
 16 17  4  0  0  0  0
 17 18  1  0  0  0  0
 17 19  4  0  0  0  0
 19 20  1  0  0  0  0
 19 21  4  0  0  0  0
 21 13  4  0  0  0  0
 21 22  1  0  0  0  0
 12 23  1  0  0  0  0
  1 24  1  0  0  0  0
M  END
> <CAS>
581-49-7

> <NAME>
Anatabine

> <preferred_name>
D,L-Anatabine

> <iupac>
C10H12N2

> <SMILES>
C1C=CCC(N1)c1c[n]ccc1

> <Canonical_QSARr>
C1C=CCC(N1)c1c[n]ccc1

> <InChI_Code_QSARr>
InChI=1S/C10H12N2/c1-2-7-12-10(5-1)9-4-3-6-11-8-9/h1-4,6,8,10,12H,5,7H2

> <InChI Key_QSARr>
SOPPBXUYQGUQHE-UHFFFAOYSA-N

> <Salt_Solvent>
?

> <WS Temperature>


> <WS Reference>
MERCK INDEX (1996)

> <dsstox_substance_id>
DTXSID30294036

> <LogMolar>
0.7953

$$$$
583-53-9
  -INDIGO-01081615412D

 12 12  0  0  0  0  0  0  0  0999 V2000
   -0.8000    1.3856    0.0000 Br  0  0  0  0  0  0  0  0  0  0  0  0
    0.0000   -0.0000    0.0000 C   0  0  0  0  0  0  0  0  0  0  0  0
   -0.8000   -1.3857    0.0000 C   0  0  0  0  0  0  0  0  0  0  0  0
   -2.4000   -1.3857    0.0000 H   0  0  0  0  0  0  0  0  0  0  0  0
    0.0000   -2.7713    0.0000 C   0  0  0  0  0  0  0  0  0  0  0  0
   -0.8000   -4.1569    0.0000 H   0  0  0  0  0  0  0  0  0  0  0  0
    1.6000   -2.7713    0.0000 C   0  0  0  0  0  0  0  0  0  0  0  0
    2.4000   -4.1569    0.0000 H   0  0  0  0  0  0  0  0  0  0  0  0
    2.4000   -1.3857    0.0000 C   0  0  0  0  0  0  0  0  0  0  0  0
    4.0000   -1.3857    0.0000 H   0  0  0  0  0  0  0  0  0  0  0  0
    1.6000   -0.0000    0.0000 C   0  0  0  0  0  0  0  0  0  0  0  0
    2.4000    1.3856    0.0000 Br  0  0  0  0  0  0  0  0  0  0  0  0
  1  2  1  0  0  0  0
  2  3  4  0  0  0  0
  3  4  1  0  0  0  0
  3  5  4  0  0  0  0
  5  6  1  0  0  0  0
  5  7  4  0  0  0  0
  7  8  1  0  0  0  0
  7  9  4  0  0  0  0
  9 10  1  0  0  0  0
  9 11  4  0  0  0  0
 11  2  4  0  0  0  0
 11 12  1  0  0  0  0
M  END
> <CAS>
583-53-9

> <NAME>
O-DIBROMOBENZENE

> <preferred_name>
1,2-Dibromobenzene

> <iupac>
1,2-dibromobenzene

> <SMILES>
Brc1ccccc1Br

> <Canonical_QSARr>
Brc1ccccc1Br

> <InChI_Code_QSARr>
InChI=1S/C6H4Br2/c7-5-3-1-2-4-6(5)8/h1-4H

> <InChI Key_QSARr>
WQONPSCCEXUXTQ-UHFFFAOYSA-N

> <Salt_Solvent>
?

> <WS Temperature>
25

> <WS Reference>
WAKITA,K ET AL. (1986)

> <dsstox_substance_id>
DTXSID0022064

> <LogMolar>
-3.5

$$$$
583-78-8
  -INDIGO-01081615412D

 13 13  0  0  0  0  0  0  0  0999 V2000
    1.6000    0.0000    0.0000 O   0  0  0  0  0  0  0  0  0  0  0  0
    0.0000   -0.0000    0.0000 C   0  0  0  0  0  0  0  0  0  0  0  0
   -0.8000    1.3856    0.0000 C   0  0  0  0  0  0  0  0  0  0  0  0
    0.0000    2.7713    0.0000 Cl  0  0  0  0  0  0  0  0  0  0  0  0
   -2.4000    1.3856    0.0000 C   0  0  0  0  0  0  0  0  0  0  0  0
   -3.2000    2.7713    0.0000 H   0  0  0  0  0  0  0  0  0  0  0  0
   -3.2000   -0.0000    0.0000 C   0  0  0  0  0  0  0  0  0  0  0  0
   -4.8000   -0.0000    0.0000 H   0  0  0  0  0  0  0  0  0  0  0  0
   -2.4000   -1.3856    0.0000 C   0  0  0  0  0  0  0  0  0  0  0  0
   -3.2000   -2.7713    0.0000 Cl  0  0  0  0  0  0  0  0  0  0  0  0
   -0.8000   -1.3856    0.0000 C   0  0  0  0  0  0  0  0  0  0  0  0
    0.0000   -2.7713    0.0000 H   0  0  0  0  0  0  0  0  0  0  0  0
    2.4000   -1.3856    0.0000 H   0  0  0  0  0  0  0  0  0  0  0  0
  1  2  1  0  0  0  0
  2  3  4  0  0  0  0
  3  4  1  0  0  0  0
  3  5  4  0  0  0  0
  5  6  1  0  0  0  0
  5  7  4  0  0  0  0
  7  8  1  0  0  0  0
  7  9  4  0  0  0  0
  9 10  1  0  0  0  0
  9 11  4  0  0  0  0
 11  2  4  0  0  0  0
 11 12  1  0  0  0  0
  1 13  1  0  0  0  0
M  END
> <CAS>
583-78-8

> <NAME>
2,5-DICHLOROPHENOL

> <preferred_name>
2,5-Dichlorophenol

> <iupac>
2,5-dichlorophenol

> <SMILES>
Oc1cc(Cl)ccc1Cl

> <Canonical_QSARr>
Oc1cc(Cl)ccc1Cl

> <InChI_Code_QSARr>
InChI=1S/C6H4Cl2O/c7-4-1-2-5(8)6(9)3-4/h1-3,9H

> <InChI Key_QSARr>
RANCECPPZPIPNO-UHFFFAOYSA-N

> <Salt_Solvent>
?

> <WS Temperature>
25

> <WS Reference>
CHEMICALS INSPECTION AND TESTING INSTITU (1992)

> <dsstox_substance_id>
DTXSID7025003

> <LogMolar>
-1.9112

$$$$
585-04-6, 18409-49-9
  -INDIGO-01081615412D

 17 16  0  0  0  0  0  0  0  0999 V2000
    0.0000    2.7713    0.0000 O   0  0  0  0  0  0  0  0  0  0  0  0
    0.8000    1.3857    0.0000 C   0  0  0  0  0  0  0  0  0  0  0  0
    0.0000   -0.0000    0.0000 C   0  0  0  0  0  0  0  0  0  0  0  0
    1.3857   -0.8000    0.0000 C   0  0  0  0  0  0  0  0  0  0  0  0
    2.7713   -1.6000    0.0000 H   0  0  0  0  0  0  0  0  0  0  0  0
    1.3857   -2.4000    0.0000 H   0  0  0  0  0  0  0  0  0  0  0  0
    2.7713   -0.0000    0.0000 H   0  0  0  0  0  0  0  0  0  0  0  0
   -1.3856    0.8000    0.0000 N   0  0  0  0  0  0  0  0  0  0  0  0
   -2.7713   -0.0000    0.0000 C   0  0  0  0  0  0  0  0  0  0  0  0
   -4.1570    0.8000    0.0000 N   0  0  0  0  0  0  0  0  0  0  0  0
   -5.5426   -0.0000    0.0000 H   0  0  0  0  0  0  0  0  0  0  0  0
   -4.1570    2.4000    0.0000 H   0  0  0  0  0  0  0  0  0  0  0  0
   -2.7713   -1.6000    0.0000 O   0  0  0  0  0  0  0  0  0  0  0  0
   -1.3857    2.4000    0.0000 H   0  0  0  0  0  0  0  0  0  0  0  0
   -0.8000   -1.3857    0.0000 H   0  0  0  0  0  0  0  0  0  0  0  0
    2.4000    1.3857    0.0000 O   0  0  0  0  0  0  0  0  0  0  0  0
    0.8000    4.1569    0.0000 H   0  0  0  0  0  0  0  0  0  0  0  0
  1  2  1  0  0  0  0
  2  3  1  0  0  0  0
  3  4  1  0  0  0  0
  4  5  1  0  0  0  0
  4  6  1  0  0  0  0
  4  7  1  0  0  0  0
  3  8  1  0  0  0  0
  8  9  1  0  0  0  0
  9 10  1  0  0  0  0
 10 11  1  0  0  0  0
 10 12  1  0  0  0  0
  9 13  2  0  0  0  0
  8 14  1  0  0  0  0
  3 15  1  0  0  0  0
  2 16  2  0  0  0  0
  1 17  1  0  0  0  0
M  END
> <CAS>
585-04-6, 18409-49-9

> <NAME>
Alanine, N-(aminocarbonyl)-, L-Alanine, N-(aminocarbonyl)-

> <preferred_name>
N-Carbamyl-DL-alanine

> <iupac>
C4H8N2O3

> <SMILES>
CC(NC(N)=O)C(O)=O

> <Canonical_QSARr>
CC(NC(N)=O)C(O)=O

> <InChI_Code_QSARr>
InChI=1S/C4H8N2O3/c1-2(3(7)8)6-4(5)9/h2H,1H3,(H,7,8)(H3,5,6,9)

> <InChI Key_QSARr>
LUSWEUMSEVLFEQ-UHFFFAOYSA-N

> <Salt_Solvent>
?

> <WS Temperature>
20

> <WS Reference>
BEILSTEIN

> <dsstox_substance_id>
DTXSID40330095

> <LogMolar>
-0.87505

$$$$
585-76-2
  -INDIGO-01081615412D

 15 15  0  0  0  0  0  0  0  0999 V2000
   -0.0000   -0.0000    0.0000 C   0  0  0  0  0  0  0  0  0  0  0  0
    1.6000    0.0000    0.0000 C   0  0  0  0  0  0  0  0  0  0  0  0
    2.4001    1.3856    0.0000 O   0  0  0  0  0  0  0  0  0  0  0  0
    2.4001   -1.3856    0.0000 O   0  0  0  0  0  0  0  0  0  0  0  0
    4.0000   -1.3856    0.0000 H   0  0  0  0  0  0  0  0  0  0  0  0
   -0.8000    1.3856    0.0000 C   0  0  0  0  0  0  0  0  0  0  0  0
   -0.0000    2.7713    0.0000 H   0  0  0  0  0  0  0  0  0  0  0  0
   -2.4000    1.3856    0.0000 C   0  0  0  0  0  0  0  0  0  0  0  0
   -3.2001    2.7713    0.0000 H   0  0  0  0  0  0  0  0  0  0  0  0
   -3.2001   -0.0000    0.0000 C   0  0  0  0  0  0  0  0  0  0  0  0
   -4.8000   -0.0000    0.0000 H   0  0  0  0  0  0  0  0  0  0  0  0
   -2.4000   -1.3856    0.0000 C   0  0  0  0  0  0  0  0  0  0  0  0
   -3.2001   -2.7713    0.0000 Br  0  0  0  0  0  0  0  0  0  0  0  0
   -0.8000   -1.3856    0.0000 C   0  0  0  0  0  0  0  0  0  0  0  0
   -0.0000   -2.7713    0.0000 H   0  0  0  0  0  0  0  0  0  0  0  0
  1  2  1  0  0  0  0
  2  3  2  0  0  0  0
  2  4  1  0  0  0  0
  4  5  1  0  0  0  0
  1  6  4  0  0  0  0
  6  7  1  0  0  0  0
  6  8  4  0  0  0  0
  8  9  1  0  0  0  0
  8 10  4  0  0  0  0
 10 11  1  0  0  0  0
 10 12  4  0  0  0  0
 12 13  1  0  0  0  0
 12 14  4  0  0  0  0
 14  1  4  0  0  0  0
 14 15  1  0  0  0  0
M  END
> <CAS>
585-76-2

> <NAME>
M-BROMOBENZOIC ACID

> <preferred_name>
m-Bromobenzoic acid

> <iupac>
3-Bromobenzoic acid

> <SMILES>
OC(=O)c1cccc(Br)c1

> <Canonical_QSARr>
OC(=O)c1cccc(Br)c1

> <InChI_Code_QSARr>
InChI=1S/C7H5BrO2/c8-6-3-1-2-5(4-6)7(9)10/h1-4H,(H,9,10)

> <InChI Key_QSARr>
VOIZNVUXCQLQHS-UHFFFAOYSA-N

> <Salt_Solvent>
?

> <WS Temperature>
25

> <WS Reference>
YALKOWSKY,SH & DANNENFELSER,RM (1992)

> <dsstox_substance_id>
DTXSID8060408

> <LogMolar>
-2.699

$$$$
586-62-9
  -INDIGO-01081615412D

 26 26  0  0  0  0  0  0  0  0999 V2000
    3.1999   -0.0000    0.0000 C   0  0  0  0  0  0  0  0  0  0  0  0
    4.8000    0.0000    0.0000 C   0  0  0  0  0  0  0  0  0  0  0  0
    6.4000    0.0000    0.0000 H   0  0  0  0  0  0  0  0  0  0  0  0
    5.6000   -1.3857    0.0000 H   0  0  0  0  0  0  0  0  0  0  0  0
    5.6000    1.3857    0.0000 H   0  0  0  0  0  0  0  0  0  0  0  0
    2.4000    1.3857    0.0000 C   0  0  0  0  0  0  0  0  0  0  0  0
    3.9034    1.9329    0.0000 H   0  0  0  0  0  0  0  0  0  0  0  0
    2.1221    2.9613    0.0000 H   0  0  0  0  0  0  0  0  0  0  0  0
    0.8000    1.3857    0.0000 C   0  0  0  0  0  0  0  0  0  0  0  0
    1.0779    2.9613    0.0000 H   0  0  0  0  0  0  0  0  0  0  0  0
   -0.7035    1.9329    0.0000 H   0  0  0  0  0  0  0  0  0  0  0  0
    0.0000   -0.0000    0.0000 C   0  0  0  0  0  0  0  0  0  0  0  0
   -1.6001   -0.0000    0.0000 C   0  0  0  0  0  0  0  0  0  0  0  0
   -2.4000   -1.3857    0.0000 C   0  0  0  0  0  0  0  0  0  0  0  0
   -4.0000   -1.3857    0.0000 H   0  0  0  0  0  0  0  0  0  0  0  0
   -3.2000   -2.7713    0.0000 H   0  0  0  0  0  0  0  0  0  0  0  0
   -3.2000   -0.0000    0.0000 H   0  0  0  0  0  0  0  0  0  0  0  0
   -2.4000    1.3857    0.0000 C   0  0  0  0  0  0  0  0  0  0  0  0
   -3.2000    2.7713    0.0000 H   0  0  0  0  0  0  0  0  0  0  0  0
   -4.0000    1.3857    0.0000 H   0  0  0  0  0  0  0  0  0  0  0  0
   -1.6001    2.7713    0.0000 H   0  0  0  0  0  0  0  0  0  0  0  0
    0.8000   -1.3857    0.0000 C   0  0  0  0  0  0  0  0  0  0  0  0
   -0.7035   -1.9329    0.0000 H   0  0  0  0  0  0  0  0  0  0  0  0
    1.0779   -2.9613    0.0000 H   0  0  0  0  0  0  0  0  0  0  0  0
    2.4000   -1.3857    0.0000 C   0  0  0  0  0  0  0  0  0  0  0  0
    3.1999   -2.7713    0.0000 H   0  0  0  0  0  0  0  0  0  0  0  0
  1  2  1  0  0  0  0
  2  3  1  0  0  0  0
  2  4  1  0  0  0  0
  2  5  1  0  0  0  0
  1  6  1  0  0  0  0
  6  7  1  0  0  0  0
  6  8  1  0  0  0  0
  6  9  1  0  0  0  0
  9 10  1  0  0  0  0
  9 11  1  0  0  0  0
  9 12  1  0  0  0  0
 12 13  2  0  0  0  0
 13 14  1  0  0  0  0
 14 15  1  0  0  0  0
 14 16  1  0  0  0  0
 14 17  1  0  0  0  0
 13 18  1  0  0  0  0
 18 19  1  0  0  0  0
 18 20  1  0  0  0  0
 18 21  1  0  0  0  0
 12 22  1  0  0  0  0
 22 23  1  0  0  0  0
 22 24  1  0  0  0  0
 22 25  1  0  0  0  0
 25  1  2  0  0  0  0
 25 26  1  0  0  0  0
M  END
> <CAS>
586-62-9

> <NAME>
TERPINOLENE

> <preferred_name>
Terpinolene

> <iupac>
1-methyl-4-(propan-2-ylidene)cyclohexene

> <SMILES>
CC(C)=C1CC=C(C)CC1

> <Canonical_QSARr>
CC(C)=C1CC=C(C)CC1

> <InChI_Code_QSARr>
InChI=1S/C10H16/c1-8(2)10-6-4-9(3)5-7-10/h4H,5-7H2,1-3H3

> <InChI Key_QSARr>
MOYAFQVGZZPNRA-UHFFFAOYSA-N

> <Salt_Solvent>
?

> <WS Temperature>
23

> <WS Reference>
LI,J ET AL (1998)

> <dsstox_substance_id>
DTXSID0027222

> <LogMolar>
-4.1566

$$$$
587-01-9
  -INDIGO-01081615412D

 16 15  0  0  0  0  0  0  0  0999 V2000
    0.0000   -2.7713    0.0000 Cl  0  0  0  0  0  0  0  0  0  0  0  0
   -0.8000   -1.3856    0.0000 C   0  0  0  0  0  0  0  0  0  0  0  0
    0.0000    0.0000    0.0000 C   0  0  0  0  0  0  0  0  0  0  0  0
    0.5472    1.5035    0.0000 C   0  0  0  0  0  0  0  0  0  0  0  0
    1.0944    3.0070    0.0000 Cl  0  0  0  0  0  0  0  0  0  0  0  0
   -0.4813    2.7292    0.0000 H   0  0  0  0  0  0  0  0  0  0  0  0
    2.1230    1.7813    0.0000 H   0  0  0  0  0  0  0  0  0  0  0  0
    1.3857   -0.8000    0.0000 O   0  0  0  0  0  0  0  0  0  0  0  0
    2.9614   -0.5221    0.0000 C   0  0  0  0  0  0  0  0  0  0  0  0
    3.9898   -1.7478    0.0000 N   0  0  0  0  0  0  0  0  0  0  0  0
    5.5655   -1.4700    0.0000 H   0  0  0  0  0  0  0  0  0  0  0  0
    3.4426   -3.2513    0.0000 H   0  0  0  0  0  0  0  0  0  0  0  0
    3.5086    0.9813    0.0000 O   0  0  0  0  0  0  0  0  0  0  0  0
   -1.3856    0.8000    0.0000 H   0  0  0  0  0  0  0  0  0  0  0  0
   -1.6000   -2.7713    0.0000 H   0  0  0  0  0  0  0  0  0  0  0  0
   -2.4000   -1.3856    0.0000 H   0  0  0  0  0  0  0  0  0  0  0  0
  1  2  1  0  0  0  0
  2  3  1  0  0  0  0
  3  4  1  0  0  0  0
  4  5  1  0  0  0  0
  4  6  1  0  0  0  0
  4  7  1  0  0  0  0
  3  8  1  0  0  0  0
  8  9  1  0  0  0  0
  9 10  1  0  0  0  0
 10 11  1  0  0  0  0
 10 12  1  0  0  0  0
  9 13  2  0  0  0  0
  3 14  1  0  0  0  0
  2 15  1  0  0  0  0
  2 16  1  0  0  0  0
M  END
> <CAS>
587-01-9

> <NAME>
2-Propanol, 1,3-dichloro-, carbamate

> <preferred_name>
2-Chloro-1-(chloromethyl)ethyl carbamate

> <iupac>
1,3-dichloropropan-2-yl carbamate

> <SMILES>
NC(=O)OC(CCl)CCl

> <Canonical_QSARr>
NC(=O)OC(CCl)CCl

> <InChI_Code_QSARr>
InChI=1S/C4H7Cl2NO2/c5-1-3(2-6)9-4(7)8/h3H,1-2H2,(H2,7,8)

> <InChI Key_QSARr>
JMNCUXPHXKHBPY-UHFFFAOYSA-N

> <Salt_Solvent>
?

> <WS Temperature>
25

> <WS Reference>
BEILSTEIN

> <dsstox_substance_id>
DTXSID40207394

> <LogMolar>
-1.3605

$$$$
588-22-7
  -INDIGO-01081615412D

 19 19  0  0  0  0  0  0  0  0999 V2000
   -1.3856    4.0000    0.0000 Cl  0  0  0  0  0  0  0  0  0  0  0  0
   -1.3856    2.4000    0.0000 C   0  0  0  0  0  0  0  0  0  0  0  0
   -2.7713    1.6000    0.0000 C   0  0  0  0  0  0  0  0  0  0  0  0
   -4.1569    2.4000    0.0000 Cl  0  0  0  0  0  0  0  0  0  0  0  0
   -2.7713    0.0000    0.0000 C   0  0  0  0  0  0  0  0  0  0  0  0
   -4.1569   -0.8000    0.0000 H   0  0  0  0  0  0  0  0  0  0  0  0
   -1.3856   -0.8000    0.0000 C   0  0  0  0  0  0  0  0  0  0  0  0
   -1.3856   -2.4000    0.0000 H   0  0  0  0  0  0  0  0  0  0  0  0
    0.0001    0.0000    0.0000 C   0  0  0  0  0  0  0  0  0  0  0  0
    1.3857   -0.8000    0.0000 O   0  0  0  0  0  0  0  0  0  0  0  0
    2.7712    0.0000    0.0000 C   0  0  0  0  0  0  0  0  0  0  0  0
    4.1569    0.8000    0.0000 C   0  0  0  0  0  0  0  0  0  0  0  0
    4.1569    2.4000    0.0000 O   0  0  0  0  0  0  0  0  0  0  0  0
    5.5425    0.0000    0.0000 O   0  0  0  0  0  0  0  0  0  0  0  0
    6.9282    0.8000    0.0000 H   0  0  0  0  0  0  0  0  0  0  0  0
    3.5713   -1.3856    0.0000 H   0  0  0  0  0  0  0  0  0  0  0  0
    1.9713    1.3856    0.0000 H   0  0  0  0  0  0  0  0  0  0  0  0
    0.0001    1.6000    0.0000 C   0  0  0  0  0  0  0  0  0  0  0  0
    1.3857    2.4000    0.0000 H   0  0  0  0  0  0  0  0  0  0  0  0
  1  2  1  0  0  0  0
  2  3  4  0  0  0  0
  3  4  1  0  0  0  0
  3  5  4  0  0  0  0
  5  6  1  0  0  0  0
  5  7  4  0  0  0  0
  7  8  1  0  0  0  0
  7  9  4  0  0  0  0
  9 10  1  0  0  0  0
 10 11  1  0  0  0  0
 11 12  1  0  0  0  0
 12 13  2  0  0  0  0
 12 14  1  0  0  0  0
 14 15  1  0  0  0  0
 11 16  1  0  0  0  0
 11 17  1  0  0  0  0
  9 18  4  0  0  0  0
 18  2  4  0  0  0  0
 18 19  1  0  0  0  0
M  END
> <CAS>
588-22-7

> <NAME>
3,4-DICHLOROPHENOXYACETIC ACID

> <preferred_name>
3,4-DA

> <iupac>
2-(3,4-dichlorophenoxy)acetic acid

> <SMILES>
OC(=O)COc1cc(Cl)c(Cl)cc1

> <Canonical_QSARr>
OC(=O)COc1cc(Cl)c(Cl)cc1

> <InChI_Code_QSARr>
InChI=1S/C8H6Cl2O3/c9-6-2-1-5(3-7(6)10)13-4-8(11)12/h1-3H,4H2,(H,11,12)

> <InChI Key_QSARr>
SNYRXHULAWEECU-UHFFFAOYSA-N

> <Salt_Solvent>
?

> <WS Temperature>
25

> <WS Reference>
YALKOWSKY,SH & DANNENFELSER,RM (1992)

> <dsstox_substance_id>
DTXSID70207524

> <LogMolar>
-2.6846

$$$$
589-34-4
  -INDIGO-01081615412D

 23 22  0  0  0  0  0  0  0  0999 V2000
   -3.1514   -0.5556    0.0000 C   0  0  0  0  0  0  0  0  0  0  0  0
   -1.5757   -0.2778    0.0000 C   0  0  0  0  0  0  0  0  0  0  0  0
   -0.0001   -0.0000    0.0000 C   0  0  0  0  0  0  0  0  0  0  0  0
   -0.0001    1.6000    0.0000 C   0  0  0  0  0  0  0  0  0  0  0  0
   -0.0001    3.2000    0.0000 H   0  0  0  0  0  0  0  0  0  0  0  0
   -1.3857    2.4000    0.0000 H   0  0  0  0  0  0  0  0  0  0  0  0
    1.2257    2.6284    0.0000 H   0  0  0  0  0  0  0  0  0  0  0  0
    1.5758   -0.2778    0.0000 C   0  0  0  0  0  0  0  0  0  0  0  0
    3.1514   -0.5556    0.0000 C   0  0  0  0  0  0  0  0  0  0  0  0
    4.7271   -0.8335    0.0000 C   0  0  0  0  0  0  0  0  0  0  0  0
    6.3028   -1.1113    0.0000 H   0  0  0  0  0  0  0  0  0  0  0  0
    5.2743   -2.3370    0.0000 H   0  0  0  0  0  0  0  0  0  0  0  0
    5.7556    0.3922    0.0000 H   0  0  0  0  0  0  0  0  0  0  0  0
    2.8736   -2.1314    0.0000 H   0  0  0  0  0  0  0  0  0  0  0  0
    3.4293    1.0200    0.0000 H   0  0  0  0  0  0  0  0  0  0  0  0
    1.2979   -1.8536    0.0000 H   0  0  0  0  0  0  0  0  0  0  0  0
    1.8535    1.2979    0.0000 H   0  0  0  0  0  0  0  0  0  0  0  0
   -0.0001   -1.6000    0.0000 H   0  0  0  0  0  0  0  0  0  0  0  0
   -1.2979   -1.8536    0.0000 H   0  0  0  0  0  0  0  0  0  0  0  0
   -1.8536    1.2979    0.0000 H   0  0  0  0  0  0  0  0  0  0  0  0
   -4.7271   -0.8335    0.0000 H   0  0  0  0  0  0  0  0  0  0  0  0
   -3.6986   -2.0592    0.0000 H   0  0  0  0  0  0  0  0  0  0  0  0
   -4.1799    0.6700    0.0000 H   0  0  0  0  0  0  0  0  0  0  0  0
  1  2  1  0  0  0  0
  2  3  1  0  0  0  0
  3  4  1  0  0  0  0
  4  5  1  0  0  0  0
  4  6  1  0  0  0  0
  4  7  1  0  0  0  0
  3  8  1  0  0  0  0
  8  9  1  0  0  0  0
  9 10  1  0  0  0  0
 10 11  1  0  0  0  0
 10 12  1  0  0  0  0
 10 13  1  0  0  0  0
  9 14  1  0  0  0  0
  9 15  1  0  0  0  0
  8 16  1  0  0  0  0
  8 17  1  0  0  0  0
  3 18  1  0  0  0  0
  2 19  1  0  0  0  0
  2 20  1  0  0  0  0
  1 21  1  0  0  0  0
  1 22  1  0  0  0  0
  1 23  1  0  0  0  0
M  END
> <CAS>
589-34-4

> <NAME>
3-METHYLHEXANE

> <preferred_name>
3-Methylhexane

> <iupac>
3-methylhexane

> <SMILES>
CCC(C)CCC

> <Canonical_QSARr>
CCC(C)CCC

> <InChI_Code_QSARr>
InChI=1S/C7H16/c1-4-6-7(3)5-2/h7H,4-6H2,1-3H3

> <InChI Key_QSARr>
VLJXXKKOSFGPHI-UHFFFAOYSA-N

> <Salt_Solvent>
?

> <WS Temperature>
25

> <WS Reference>
YALKOWSKY,SH & DANNENFELSER,RM (1992)

> <dsstox_substance_id>
DTXSID3044334

> <LogMolar>
-4.3063

$$$$
589-81-1
  -INDIGO-01081615412D

 26 25  0  0  0  0  0  0  0  0999 V2000
   -3.1514   -0.5556    0.0000 C   0  0  0  0  0  0  0  0  0  0  0  0
   -1.5756   -0.2778    0.0000 C   0  0  0  0  0  0  0  0  0  0  0  0
    0.0001   -0.0000    0.0000 C   0  0  0  0  0  0  0  0  0  0  0  0
    0.0001    1.6000    0.0000 C   0  0  0  0  0  0  0  0  0  0  0  0
    0.0001    3.2000    0.0000 H   0  0  0  0  0  0  0  0  0  0  0  0
   -1.3856    2.4000    0.0000 H   0  0  0  0  0  0  0  0  0  0  0  0
    1.2257    2.6285    0.0000 H   0  0  0  0  0  0  0  0  0  0  0  0
    1.5758   -0.2778    0.0000 C   0  0  0  0  0  0  0  0  0  0  0  0
    3.1513   -0.5556    0.0000 C   0  0  0  0  0  0  0  0  0  0  0  0
    4.7270   -0.8335    0.0000 C   0  0  0  0  0  0  0  0  0  0  0  0
    6.3027   -1.1113    0.0000 C   0  0  0  0  0  0  0  0  0  0  0  0
    7.8785   -1.3892    0.0000 H   0  0  0  0  0  0  0  0  0  0  0  0
    6.8500   -2.6149    0.0000 H   0  0  0  0  0  0  0  0  0  0  0  0
    7.3312    0.1144    0.0000 H   0  0  0  0  0  0  0  0  0  0  0  0
    4.4493   -2.4092    0.0000 H   0  0  0  0  0  0  0  0  0  0  0  0
    5.0050    0.7422    0.0000 H   0  0  0  0  0  0  0  0  0  0  0  0
    2.8736   -2.1314    0.0000 H   0  0  0  0  0  0  0  0  0  0  0  0
    3.4293    1.0200    0.0000 H   0  0  0  0  0  0  0  0  0  0  0  0
    1.2978   -1.8536    0.0000 H   0  0  0  0  0  0  0  0  0  0  0  0
    1.8535    1.2978    0.0000 H   0  0  0  0  0  0  0  0  0  0  0  0
    0.0001   -1.6000    0.0000 H   0  0  0  0  0  0  0  0  0  0  0  0
   -1.2979   -1.8536    0.0000 H   0  0  0  0  0  0  0  0  0  0  0  0
   -1.8536    1.2978    0.0000 H   0  0  0  0  0  0  0  0  0  0  0  0
   -4.7271   -0.8335    0.0000 H   0  0  0  0  0  0  0  0  0  0  0  0
   -3.6986   -2.0591    0.0000 H   0  0  0  0  0  0  0  0  0  0  0  0
   -4.1798    0.6700    0.0000 H   0  0  0  0  0  0  0  0  0  0  0  0
  1  2  1  0  0  0  0
  2  3  1  0  0  0  0
  3  4  1  0  0  0  0
  4  5  1  0  0  0  0
  4  6  1  0  0  0  0
  4  7  1  0  0  0  0
  3  8  1  0  0  0  0
  8  9  1  0  0  0  0
  9 10  1  0  0  0  0
 10 11  1  0  0  0  0
 11 12  1  0  0  0  0
 11 13  1  0  0  0  0
 11 14  1  0  0  0  0
 10 15  1  0  0  0  0
 10 16  1  0  0  0  0
  9 17  1  0  0  0  0
  9 18  1  0  0  0  0
  8 19  1  0  0  0  0
  8 20  1  0  0  0  0
  3 21  1  0  0  0  0
  2 22  1  0  0  0  0
  2 23  1  0  0  0  0
  1 24  1  0  0  0  0
  1 25  1  0  0  0  0
  1 26  1  0  0  0  0
M  END
> <CAS>
589-81-1

> <NAME>
3-METHYLHEPTANE

> <preferred_name>


> <iupac>


> <SMILES>
CCCCC(C)CC

> <Canonical_QSARr>
CCCCC(C)CC

> <InChI_Code_QSARr>
InChI=1S/C8H18/c1-4-6-7-8(3)5-2/h8H,4-7H2,1-3H3

> <InChI Key_QSARr>
LAIUFBWHERIJIH-UHFFFAOYSA-N

> <Salt_Solvent>
?

> <WS Temperature>
25

> <WS Reference>
YALKOWSKY,SH & DANNENFELSER,RM (1992)

> <dsstox_substance_id>


> <LogMolar>
-5.1591

$$$$
589-91-3
  -INDIGO-01081615412D

 22 22  0  0  0  0  0  0  0  0999 V2000
   -0.0000    0.0000    0.0000 C   0  0  0  0  0  0  0  0  0  0  0  0
    1.5757    0.2778    0.0000 C   0  0  0  0  0  0  0  0  0  0  0  0
    3.1514    0.5556    0.0000 H   0  0  0  0  0  0  0  0  0  0  0  0
    2.1230    1.7814    0.0000 H   0  0  0  0  0  0  0  0  0  0  0  0
    2.6041   -0.9478    0.0000 H   0  0  0  0  0  0  0  0  0  0  0  0
   -1.3856    0.8000    0.0000 C   0  0  0  0  0  0  0  0  0  0  0  0
   -0.3572    2.0257    0.0000 H   0  0  0  0  0  0  0  0  0  0  0  0
   -2.4141    2.0257    0.0000 H   0  0  0  0  0  0  0  0  0  0  0  0
   -2.7713    0.0000    0.0000 C   0  0  0  0  0  0  0  0  0  0  0  0
   -3.3185    1.5035    0.0000 H   0  0  0  0  0  0  0  0  0  0  0  0
   -4.3470   -0.2778    0.0000 H   0  0  0  0  0  0  0  0  0  0  0  0
   -2.7713   -1.6000    0.0000 C   0  0  0  0  0  0  0  0  0  0  0  0
   -4.3470   -1.3222    0.0000 O   0  0  0  0  0  0  0  0  0  0  0  0
   -5.3754   -2.5478    0.0000 H   0  0  0  0  0  0  0  0  0  0  0  0
   -3.3185   -3.1035    0.0000 H   0  0  0  0  0  0  0  0  0  0  0  0
   -1.3856   -2.4000    0.0000 C   0  0  0  0  0  0  0  0  0  0  0  0
   -2.4141   -3.6257    0.0000 H   0  0  0  0  0  0  0  0  0  0  0  0
   -0.3572   -3.6257    0.0000 H   0  0  0  0  0  0  0  0  0  0  0  0
   -0.0000   -1.6000    0.0000 C   0  0  0  0  0  0  0  0  0  0  0  0
    0.5472   -3.1035    0.0000 H   0  0  0  0  0  0  0  0  0  0  0  0
    1.5999   -1.6000    0.0000 H   0  0  0  0  0  0  0  0  0  0  0  0
    0.5472    1.5035    0.0000 H   0  0  0  0  0  0  0  0  0  0  0  0
  1  2  1  0  0  0  0
  2  3  1  0  0  0  0
  2  4  1  0  0  0  0
  2  5  1  0  0  0  0
  1  6  1  0  0  0  0
  6  7  1  0  0  0  0
  6  8  1  0  0  0  0
  6  9  1  0  0  0  0
  9 10  1  0  0  0  0
  9 11  1  0  0  0  0
  9 12  1  0  0  0  0
 12 13  1  0  0  0  0
 13 14  1  0  0  0  0
 12 15  1  0  0  0  0
 12 16  1  0  0  0  0
 16 17  1  0  0  0  0
 16 18  1  0  0  0  0
 16 19  1  0  0  0  0
 19  1  1  0  0  0  0
 19 20  1  0  0  0  0
 19 21  1  0  0  0  0
  1 22  1  0  0  0  0
M  END
> <CAS>
589-91-3

> <NAME>
4-METHYLCYCLOHEXANOL

> <preferred_name>
Cyclohexanol, 4-methyl-

> <iupac>
4-methylcyclohexan-1-ol

> <SMILES>
CC1CCC(O)CC1

> <Canonical_QSARr>
CC1CCC(O)CC1

> <InChI_Code_QSARr>
InChI=1S/C7H14O/c1-6-2-4-7(8)5-3-6/h6-8H,2-5H2,1H3

> <InChI Key_QSARr>
MQWCXKGKQLNYQG-UHFFFAOYSA-N

> <Salt_Solvent>
?

> <WS Temperature>
20

> <WS Reference>
HALL,LH ET AL (1975)

> <dsstox_substance_id>
DTXSID0060434

> <LogMolar>
-0.8815

$$$$
590-29-4
  -INDIGO-01081615412D

  5  4  0  0  0  0  0  0  0  0999 V2000
    1.3856   -0.8000    0.0000 O   0  0  0  0  0  0  0  0  0  0  0  0
    0.0000   -0.0000    0.0000 C   0  0  0  0  0  0  0  0  0  0  0  0
    0.0000    1.6000    0.0000 O   0  0  0  0  0  0  0  0  0  0  0  0
   -1.3856   -0.8000    0.0000 H   0  0  0  0  0  0  0  0  0  0  0  0
    2.7713   -0.0000    0.0000 H   0  0  0  0  0  0  0  0  0  0  0  0
  1  2  1  0  0  0  0
  2  3  2  0  0  0  0
  2  4  1  0  0  0  0
  1  5  1  0  0  0  0
M  END
> <CAS>
590-29-4

> <NAME>
Potassium Formate

> <preferred_name>
Formic acid, potassium salt

> <iupac>
potassium formate

> <SMILES>
[K+].[O-]C=O

> <Canonical_QSARr>
OC=O

> <InChI_Code_QSARr>
InChI=1S/CH2O2/c2-1-3/h1H,(H,2,3)

> <InChI Key_QSARr>
BDAGIHXWWSANSR-UHFFFAOYSA-N

> <Salt_Solvent>
[K+]

> <WS Temperature>


> <WS Reference>
MERCK INDEX (1996)

> <dsstox_substance_id>
DTXSID6029626

> <LogMolar>
0.9288

$$$$
590-35-2
  -INDIGO-01081615412D

 23 22  0  0  0  0  0  0  0  0999 V2000
    1.6001    0.0000    0.0000 C   0  0  0  0  0  0  0  0  0  0  0  0
    3.2000    0.0000    0.0000 C   0  0  0  0  0  0  0  0  0  0  0  0
    4.8001    0.0000    0.0000 C   0  0  0  0  0  0  0  0  0  0  0  0
    6.4000    0.0000    0.0000 H   0  0  0  0  0  0  0  0  0  0  0  0
    5.6000    1.3856    0.0000 H   0  0  0  0  0  0  0  0  0  0  0  0
    5.6000   -1.3856    0.0000 H   0  0  0  0  0  0  0  0  0  0  0  0
    3.2000   -1.6000    0.0000 H   0  0  0  0  0  0  0  0  0  0  0  0
    3.2000    1.6000    0.0000 H   0  0  0  0  0  0  0  0  0  0  0  0
    0.0000    0.0000    0.0000 C   0  0  0  0  0  0  0  0  0  0  0  0
   -1.6001   -0.0000    0.0000 C   0  0  0  0  0  0  0  0  0  0  0  0
   -3.2000   -0.0000    0.0000 H   0  0  0  0  0  0  0  0  0  0  0  0
   -2.4000   -1.3856    0.0000 H   0  0  0  0  0  0  0  0  0  0  0  0
   -2.4000    1.3856    0.0000 H   0  0  0  0  0  0  0  0  0  0  0  0
    0.0000    1.6000    0.0000 C   0  0  0  0  0  0  0  0  0  0  0  0
    0.0000    3.2000    0.0000 H   0  0  0  0  0  0  0  0  0  0  0  0
   -1.3856    2.4000    0.0000 H   0  0  0  0  0  0  0  0  0  0  0  0
    1.2257    2.6285    0.0000 H   0  0  0  0  0  0  0  0  0  0  0  0
    0.0000   -1.6000    0.0000 C   0  0  0  0  0  0  0  0  0  0  0  0
    0.0000   -3.2000    0.0000 H   0  0  0  0  0  0  0  0  0  0  0  0
   -1.3856   -2.4000    0.0000 H   0  0  0  0  0  0  0  0  0  0  0  0
    1.2257   -2.6285    0.0000 H   0  0  0  0  0  0  0  0  0  0  0  0
    1.8778   -1.5757    0.0000 H   0  0  0  0  0  0  0  0  0  0  0  0
    1.6001    1.6000    0.0000 H   0  0  0  0  0  0  0  0  0  0  0  0
  1  2  1  0  0  0  0
  2  3  1  0  0  0  0
  3  4  1  0  0  0  0
  3  5  1  0  0  0  0
  3  6  1  0  0  0  0
  2  7  1  0  0  0  0
  2  8  1  0  0  0  0
  1  9  1  0  0  0  0
  9 10  1  0  0  0  0
 10 11  1  0  0  0  0
 10 12  1  0  0  0  0
 10 13  1  0  0  0  0
  9 14  1  0  0  0  0
 14 15  1  0  0  0  0
 14 16  1  0  0  0  0
 14 17  1  0  0  0  0
  9 18  1  0  0  0  0
 18 19  1  0  0  0  0
 18 20  1  0  0  0  0
 18 21  1  0  0  0  0
  1 22  1  0  0  0  0
  1 23  1  0  0  0  0
M  END
> <CAS>
590-35-2

> <NAME>
2,2-DIMETHYLPENTANE

> <preferred_name>
Pentane, 2,2-dimethyl-

> <iupac>
2,2-DIMETHYLPENTANE

> <SMILES>
CCCC(C)(C)C

> <Canonical_QSARr>
CCCC(C)(C)C

> <InChI_Code_QSARr>
InChI=1S/C7H16/c1-5-6-7(2,3)4/h5-6H2,1-4H3

> <InChI Key_QSARr>
CXOWYJMDMMMMJO-UHFFFAOYSA-N

> <Salt_Solvent>
?

> <WS Temperature>
25

> <WS Reference>
YALKOWSKY,SH & DANNENFELSER,RM (1992)

> <dsstox_substance_id>
DTXSID5060439

> <LogMolar>
-4.3575

$$$$
591-20-8
  -INDIGO-01081615412D

 13 13  0  0  0  0  0  0  0  0999 V2000
   -1.6000   -0.0000    0.0000 C   0  0  0  0  0  0  0  0  0  0  0  0
   -2.4000   -1.3857    0.0000 C   0  0  0  0  0  0  0  0  0  0  0  0
   -4.0000   -1.3857    0.0000 Br  0  0  0  0  0  0  0  0  0  0  0  0
   -1.6000   -2.7713    0.0000 C   0  0  0  0  0  0  0  0  0  0  0  0
   -2.4000   -4.1569    0.0000 H   0  0  0  0  0  0  0  0  0  0  0  0
   -0.0000   -2.7713    0.0000 C   0  0  0  0  0  0  0  0  0  0  0  0
    0.8000   -4.1569    0.0000 H   0  0  0  0  0  0  0  0  0  0  0  0
    0.8000   -1.3857    0.0000 C   0  0  0  0  0  0  0  0  0  0  0  0
    2.4000   -1.3857    0.0000 H   0  0  0  0  0  0  0  0  0  0  0  0
   -0.0000   -0.0000    0.0000 C   0  0  0  0  0  0  0  0  0  0  0  0
    0.8000    1.3856    0.0000 O   0  0  0  0  0  0  0  0  0  0  0  0
    2.4000    1.3856    0.0000 H   0  0  0  0  0  0  0  0  0  0  0  0
   -2.4000    1.3856    0.0000 H   0  0  0  0  0  0  0  0  0  0  0  0
  1  2  4  0  0  0  0
  2  3  1  0  0  0  0
  2  4  4  0  0  0  0
  4  5  1  0  0  0  0
  4  6  4  0  0  0  0
  6  7  1  0  0  0  0
  6  8  4  0  0  0  0
  8  9  1  0  0  0  0
  8 10  4  0  0  0  0
 10  1  4  0  0  0  0
 10 11  1  0  0  0  0
 11 12  1  0  0  0  0
  1 13  1  0  0  0  0
M  END
> <CAS>
591-20-8

> <NAME>
M-BROMOPHENOL

> <preferred_name>
Phenol, 3-bromo-

> <iupac>
3-BROMOPHENOL

> <SMILES>
Oc1cc(Br)ccc1

> <Canonical_QSARr>
Oc1cc(Br)ccc1

> <InChI_Code_QSARr>
InChI=1S/C6H5BrO/c7-5-2-1-3-6(8)4-5/h1-4,8H

> <InChI Key_QSARr>
MNOJRWOWILAHAV-UHFFFAOYSA-N

> <Salt_Solvent>
?

> <WS Temperature>
25

> <WS Reference>
CHEMICALS INSPECTION AND TESTING INSTITU (1992)

> <dsstox_substance_id>
DTXSID9060449

> <LogMolar>
-0.8764

$$$$
591-35-5
  -INDIGO-01081615412D

 13 13  0  0  0  0  0  0  0  0999 V2000
    0.0000   -0.0000    0.0000 C   0  0  0  0  0  0  0  0  0  0  0  0
    1.6000    0.0000    0.0000 O   0  0  0  0  0  0  0  0  0  0  0  0
    2.4000   -1.3856    0.0000 H   0  0  0  0  0  0  0  0  0  0  0  0
   -0.8000    1.3856    0.0000 C   0  0  0  0  0  0  0  0  0  0  0  0
    0.0000    2.7713    0.0000 H   0  0  0  0  0  0  0  0  0  0  0  0
   -2.4000    1.3856    0.0000 C   0  0  0  0  0  0  0  0  0  0  0  0
   -3.2000    2.7713    0.0000 Cl  0  0  0  0  0  0  0  0  0  0  0  0
   -3.2000   -0.0000    0.0000 C   0  0  0  0  0  0  0  0  0  0  0  0
   -4.8000   -0.0000    0.0000 H   0  0  0  0  0  0  0  0  0  0  0  0
   -2.4000   -1.3856    0.0000 C   0  0  0  0  0  0  0  0  0  0  0  0
   -3.2000   -2.7713    0.0000 Cl  0  0  0  0  0  0  0  0  0  0  0  0
   -0.8000   -1.3856    0.0000 C   0  0  0  0  0  0  0  0  0  0  0  0
    0.0000   -2.7713    0.0000 H   0  0  0  0  0  0  0  0  0  0  0  0
  1  2  1  0  0  0  0
  2  3  1  0  0  0  0
  1  4  4  0  0  0  0
  4  5  1  0  0  0  0
  4  6  4  0  0  0  0
  6  7  1  0  0  0  0
  6  8  4  0  0  0  0
  8  9  1  0  0  0  0
  8 10  4  0  0  0  0
 10 11  1  0  0  0  0
 10 12  4  0  0  0  0
 12  1  4  0  0  0  0
 12 13  1  0  0  0  0
M  END
> <CAS>
591-35-5

> <NAME>
3,5-DICHLOROPHENOL

> <preferred_name>
3,5-Dichlorophenol

> <iupac>
3,5-dichlorophenol

> <SMILES>
Oc1cc(Cl)cc(Cl)c1

> <Canonical_QSARr>
Oc1cc(Cl)cc(Cl)c1

> <InChI_Code_QSARr>
InChI=1S/C6H4Cl2O/c7-4-1-5(8)3-6(9)2-4/h1-3,9H

> <InChI Key_QSARr>
VPOMSPZBQMDLTM-UHFFFAOYSA-N

> <Salt_Solvent>
?

> <WS Temperature>
25

> <WS Reference>
HUYSKENS,P ET AL. (1975)

> <dsstox_substance_id>
DTXSID2025006

> <LogMolar>
-1.559

$$$$
591-78-6
  -INDIGO-01081615412D

 19 18  0  0  0  0  0  0  0  0999 V2000
    3.2000    0.0000    0.0000 C   0  0  0  0  0  0  0  0  0  0  0  0
    1.5999    0.0000    0.0000 C   0  0  0  0  0  0  0  0  0  0  0  0
   -0.0000    0.0000    0.0000 C   0  0  0  0  0  0  0  0  0  0  0  0
   -1.6000    0.0000    0.0000 C   0  0  0  0  0  0  0  0  0  0  0  0
   -3.2001    0.0000    0.0000 C   0  0  0  0  0  0  0  0  0  0  0  0
   -4.0000   -1.3856    0.0000 C   0  0  0  0  0  0  0  0  0  0  0  0
   -4.8000   -2.7713    0.0000 H   0  0  0  0  0  0  0  0  0  0  0  0
   -5.6000   -1.3856    0.0000 H   0  0  0  0  0  0  0  0  0  0  0  0
   -3.2001   -2.7713    0.0000 H   0  0  0  0  0  0  0  0  0  0  0  0
   -4.0000    1.3856    0.0000 O   0  0  0  0  0  0  0  0  0  0  0  0
   -1.6000   -1.6000    0.0000 H   0  0  0  0  0  0  0  0  0  0  0  0
   -1.6000    1.6000    0.0000 H   0  0  0  0  0  0  0  0  0  0  0  0
   -0.0000    1.6000    0.0000 H   0  0  0  0  0  0  0  0  0  0  0  0
   -0.0000   -1.6000    0.0000 H   0  0  0  0  0  0  0  0  0  0  0  0
    1.5999   -1.6000    0.0000 H   0  0  0  0  0  0  0  0  0  0  0  0
    1.5999    1.6000    0.0000 H   0  0  0  0  0  0  0  0  0  0  0  0
    4.8000    0.0000    0.0000 H   0  0  0  0  0  0  0  0  0  0  0  0
    4.0000   -1.3856    0.0000 H   0  0  0  0  0  0  0  0  0  0  0  0
    4.0000    1.3856    0.0000 H   0  0  0  0  0  0  0  0  0  0  0  0
  1  2  1  0  0  0  0
  2  3  1  0  0  0  0
  3  4  1  0  0  0  0
  4  5  1  0  0  0  0
  5  6  1  0  0  0  0
  6  7  1  0  0  0  0
  6  8  1  0  0  0  0
  6  9  1  0  0  0  0
  5 10  2  0  0  0  0
  4 11  1  0  0  0  0
  4 12  1  0  0  0  0
  3 13  1  0  0  0  0
  3 14  1  0  0  0  0
  2 15  1  0  0  0  0
  2 16  1  0  0  0  0
  1 17  1  0  0  0  0
  1 18  1  0  0  0  0
  1 19  1  0  0  0  0
M  END
> <CAS>
591-78-6

> <NAME>
2-HEXANONE

> <preferred_name>
2-Hexanone

> <iupac>
hexan-2-one

> <SMILES>
CCCCC(C)=O

> <Canonical_QSARr>
CCCCC(C)=O

> <InChI_Code_QSARr>
InChI=1S/C6H12O/c1-3-4-5-6(2)7/h3-5H2,1-2H3

> <InChI Key_QSARr>
QQZOPKMRPOGIEB-UHFFFAOYSA-N

> <Salt_Solvent>
?

> <WS Temperature>
20

> <WS Reference>
YALKOWSKY,SH & HE,Y (2003)

> <dsstox_substance_id>
DTXSID0022068

> <LogMolar>
-0.7577

$$$$
591-97-9
  -INDIGO-01081615412D

 12 11  0  0  0  0  0  0  0  0999 V2000
   -1.3856   -0.8000    0.0000 C   0  0  0  0  0  0  0  0  0  0  0  0
   -2.7713   -1.6000    0.0000 Cl  0  0  0  0  0  0  0  0  0  0  0  0
    0.0000    0.0000    0.0000 C   0  0  0  0  0  0  0  0  0  0  0  0
    1.3856   -0.8000    0.0000 C   0  0  0  0  0  0  0  0  0  0  0  0
    2.7713    0.0000    0.0000 C   0  0  0  0  0  0  0  0  0  0  0  0
    4.1569    0.8000    0.0000 H   0  0  0  0  0  0  0  0  0  0  0  0
    4.1569   -0.8000    0.0000 H   0  0  0  0  0  0  0  0  0  0  0  0
    2.7713    1.6000    0.0000 H   0  0  0  0  0  0  0  0  0  0  0  0
    1.3856   -2.4000    0.0000 H   0  0  0  0  0  0  0  0  0  0  0  0
    0.0000    1.6000    0.0000 H   0  0  0  0  0  0  0  0  0  0  0  0
   -2.7713    0.0000    0.0000 H   0  0  0  0  0  0  0  0  0  0  0  0
   -1.3856   -2.4000    0.0000 H   0  0  0  0  0  0  0  0  0  0  0  0
  1  2  1  0  0  0  0
  1  3  1  0  0  0  0
  3  4  2  0  0  0  0
  4  5  1  0  0  0  0
  5  6  1  0  0  0  0
  5  7  1  0  0  0  0
  5  8  1  0  0  0  0
  4  9  1  0  0  0  0
  3 10  1  0  0  0  0
  1 11  1  0  0  0  0
  1 12  1  0  0  0  0
M  END
> <CAS>
591-97-9

> <NAME>
1-CHLORO-2-BUTENE

> <preferred_name>
1-Chlorobut-2-ene

> <iupac>
1-chlorobut-2-ene

> <SMILES>
CC=CCCl

> <Canonical_QSARr>
CC=CCCl

> <InChI_Code_QSARr>
InChI=1S/C4H7Cl/c1-2-3-4-5/h2-3H,4H2,1H3/b3-2+

> <InChI Key_QSARr>
YTKRILODNOEEPX-NSCUHMNNSA-N

> <Salt_Solvent>
?

> <WS Temperature>


> <WS Reference>
YALKOWSKY,SH & DANNENFELSER,RM (1992)

> <dsstox_substance_id>
DTXSID5052258

> <LogMolar>
-1.9569

$$$$
592-76-7
  -INDIGO-01081615412D

 21 20  0  0  0  0  0  0  0  0999 V2000
    1.6000    0.0000    0.0000 C   0  0  0  0  0  0  0  0  0  0  0  0
    3.2000    0.0000    0.0000 C   0  0  0  0  0  0  0  0  0  0  0  0
    4.8000    0.0000    0.0000 C   0  0  0  0  0  0  0  0  0  0  0  0
    5.6000   -1.3856    0.0000 C   0  0  0  0  0  0  0  0  0  0  0  0
    7.2000   -1.3856    0.0000 H   0  0  0  0  0  0  0  0  0  0  0  0
    4.8000   -2.7713    0.0000 H   0  0  0  0  0  0  0  0  0  0  0  0
    5.6000    1.3856    0.0000 H   0  0  0  0  0  0  0  0  0  0  0  0
    3.2000   -1.6000    0.0000 H   0  0  0  0  0  0  0  0  0  0  0  0
    3.2000    1.6000    0.0000 H   0  0  0  0  0  0  0  0  0  0  0  0
    0.0000    0.0000    0.0000 C   0  0  0  0  0  0  0  0  0  0  0  0
   -1.6000    0.0000    0.0000 C   0  0  0  0  0  0  0  0  0  0  0  0
   -3.2000    0.0000    0.0000 C   0  0  0  0  0  0  0  0  0  0  0  0
   -4.8000    0.0000    0.0000 H   0  0  0  0  0  0  0  0  0  0  0  0
   -4.0000   -1.3856    0.0000 H   0  0  0  0  0  0  0  0  0  0  0  0
   -4.0000    1.3856    0.0000 H   0  0  0  0  0  0  0  0  0  0  0  0
   -1.6000   -1.6000    0.0000 H   0  0  0  0  0  0  0  0  0  0  0  0
   -1.6000    1.6000    0.0000 H   0  0  0  0  0  0  0  0  0  0  0  0
    0.0000    1.6000    0.0000 H   0  0  0  0  0  0  0  0  0  0  0  0
    0.0000   -1.6000    0.0000 H   0  0  0  0  0  0  0  0  0  0  0  0
    1.6000   -1.6000    0.0000 H   0  0  0  0  0  0  0  0  0  0  0  0
    1.6000    1.6000    0.0000 H   0  0  0  0  0  0  0  0  0  0  0  0
  1  2  1  0  0  0  0
  2  3  1  0  0  0  0
  3  4  2  0  0  0  0
  4  5  1  0  0  0  0
  4  6  1  0  0  0  0
  3  7  1  0  0  0  0
  2  8  1  0  0  0  0
  2  9  1  0  0  0  0
  1 10  1  0  0  0  0
 10 11  1  0  0  0  0
 11 12  1  0  0  0  0
 12 13  1  0  0  0  0
 12 14  1  0  0  0  0
 12 15  1  0  0  0  0
 11 16  1  0  0  0  0
 11 17  1  0  0  0  0
 10 18  1  0  0  0  0
 10 19  1  0  0  0  0
  1 20  1  0  0  0  0
  1 21  1  0  0  0  0
M  END
> <CAS>
592-76-7

> <NAME>
1-HEPTENE

> <preferred_name>
1-Heptene

> <iupac>
hept-1-ene

> <SMILES>
CCCCCC=C

> <Canonical_QSARr>
CCCCCC=C

> <InChI_Code_QSARr>
InChI=1S/C7H14/c1-3-5-7-6-4-2/h3H,1,4-7H2,2H3

> <InChI Key_QSARr>
ZGEGCLOFRBLKSE-UHFFFAOYSA-N

> <Salt_Solvent>
?

> <WS Temperature>
25

> <WS Reference>
YALKOWSKY,SH & DANNENFELSER,RM (1992)

> <dsstox_substance_id>
DTXSID2060466

> <LogMolar>
-3.732

$$$$
593-53-3
  -INDIGO-01081615412D

  5  4  0  0  0  0  0  0  0  0999 V2000
    0.0000    0.0000    0.0000 C   0  0  0  0  0  0  0  0  0  0  0  0
   -1.3856    0.8000    0.0000 F   0  0  0  0  0  0  0  0  0  0  0  0
   -0.0000    1.6000    0.0000 H   0  0  0  0  0  0  0  0  0  0  0  0
   -1.3856   -0.8000    0.0000 H   0  0  0  0  0  0  0  0  0  0  0  0
    1.3856   -0.8000    0.0000 H   0  0  0  0  0  0  0  0  0  0  0  0
  1  2  1  0  0  0  0
  1  3  1  0  0  0  0
  1  4  1  0  0  0  0
  1  5  1  0  0  0  0
M  END
> <CAS>
593-53-3

> <NAME>
FLUOROMETHANE

> <preferred_name>
HFC-41

> <iupac>
Fluoromethane

> <SMILES>
CF

> <Canonical_QSARr>
CF

> <InChI_Code_QSARr>
InChI=1S/CH3F/c1-2/h1H3

> <InChI Key_QSARr>
NBVXSUQYWXRMNV-UHFFFAOYSA-N

> <Salt_Solvent>
?

> <WS Temperature>
20

> <WS Reference>
HORVATH,AL (1982)

> <dsstox_substance_id>
DTXSID6060474

> <LogMolar>
-0.1758

$$$$
594-36-5
  -INDIGO-01081615412D

 17 16  0  0  0  0  0  0  0  0999 V2000
   -0.0000    0.0000    0.0000 C   0  0  0  0  0  0  0  0  0  0  0  0
    0.8000   -1.3856    0.0000 Cl  0  0  0  0  0  0  0  0  0  0  0  0
   -1.3856   -0.8000    0.0000 C   0  0  0  0  0  0  0  0  0  0  0  0
   -2.7713   -1.6000    0.0000 H   0  0  0  0  0  0  0  0  0  0  0  0
   -1.3856   -2.4000    0.0000 H   0  0  0  0  0  0  0  0  0  0  0  0
   -2.7713    0.0000    0.0000 H   0  0  0  0  0  0  0  0  0  0  0  0
   -0.8000    1.3856    0.0000 C   0  0  0  0  0  0  0  0  0  0  0  0
   -1.6000    2.7713    0.0000 H   0  0  0  0  0  0  0  0  0  0  0  0
   -2.4001    1.3856    0.0000 H   0  0  0  0  0  0  0  0  0  0  0  0
   -0.0000    2.7713    0.0000 H   0  0  0  0  0  0  0  0  0  0  0  0
    1.5035    0.5472    0.0000 C   0  0  0  0  0  0  0  0  0  0  0  0
    3.0071    1.0945    0.0000 C   0  0  0  0  0  0  0  0  0  0  0  0
    4.5105    1.6417    0.0000 H   0  0  0  0  0  0  0  0  0  0  0  0
    4.2327    0.0660    0.0000 H   0  0  0  0  0  0  0  0  0  0  0  0
    3.2848    2.6701    0.0000 H   0  0  0  0  0  0  0  0  0  0  0  0
    2.0507   -0.9563    0.0000 H   0  0  0  0  0  0  0  0  0  0  0  0
    1.2257    2.1229    0.0000 H   0  0  0  0  0  0  0  0  0  0  0  0
  1  2  1  0  0  0  0
  1  3  1  0  0  0  0
  3  4  1  0  0  0  0
  3  5  1  0  0  0  0
  3  6  1  0  0  0  0
  1  7  1  0  0  0  0
  7  8  1  0  0  0  0
  7  9  1  0  0  0  0
  7 10  1  0  0  0  0
  1 11  1  0  0  0  0
 11 12  1  0  0  0  0
 12 13  1  0  0  0  0
 12 14  1  0  0  0  0
 12 15  1  0  0  0  0
 11 16  1  0  0  0  0
 11 17  1  0  0  0  0
M  END
> <CAS>
594-36-5

> <NAME>
BUTANE, 2-CHLORO-2-METHYL-

> <preferred_name>
Butane, 2-chloro-2-methyl-

> <iupac>
2-Chloro-2-methylbutane

> <SMILES>
CCC(C)(C)Cl

> <Canonical_QSARr>
CCC(C)(C)Cl

> <InChI_Code_QSARr>
InChI=1S/C5H11Cl/c1-4-5(2,3)6/h4H2,1-3H3

> <InChI Key_QSARr>
CRNIHJHMEQZAAS-UHFFFAOYSA-N

> <Salt_Solvent>
?

> <WS Temperature>
25

> <WS Reference>
KUHNE,R ET AL. (1995)

> <dsstox_substance_id>
DTXSID0060484

> <LogMolar>
-2.5106

$$$$
594-72-9
  -INDIGO-01081615412D

 10  9  0  0  0  0  0  0  0  0999 V2000
   -0.0000   -1.6000    0.0000 Cl  0  0  0  0  0  0  0  0  0  0  0  0
   -0.0000    0.0000    0.0000 C   0  0  0  0  0  0  0  0  0  0  0  0
    1.6000    0.0000    0.0000 C   0  0  0  0  0  0  0  0  0  0  0  0
    3.2000    0.0000    0.0000 H   0  0  0  0  0  0  0  0  0  0  0  0
    2.4000   -1.3856    0.0000 H   0  0  0  0  0  0  0  0  0  0  0  0
    2.4000    1.3856    0.0000 H   0  0  0  0  0  0  0  0  0  0  0  0
   -1.6000   -0.0000    0.0000 N   0  0  0  0  0  0  0  0  0  0  0  0
   -2.4000   -1.3856    0.0000 O   0  0  0  0  0  0  0  0  0  0  0  0
   -2.4000    1.3856    0.0000 O   0  0  0  0  0  0  0  0  0  0  0  0
   -0.0000    1.6000    0.0000 Cl  0  0  0  0  0  0  0  0  0  0  0  0
  1  2  1  0  0  0  0
  2  3  1  0  0  0  0
  3  4  1  0  0  0  0
  3  5  1  0  0  0  0
  3  6  1  0  0  0  0
  2  7  1  0  0  0  0
  7  8  1  0  0  0  0
  7  9  2  0  0  0  0
  2 10  1  0  0  0  0
M  CHG  2   7   1   8  -1
M  END
> <CAS>
594-72-9

> <NAME>
1,1-DICHLORO-1-NITROETHANE

> <preferred_name>
1,1-Dichloro-1-nitroethane

> <iupac>
1,1-dichloro-1-nitroethane

> <SMILES>
CC(Cl)(Cl)[N+]([O-])=O

> <Canonical_QSARr>
CC(Cl)(Cl)[N+]([O-])=O

> <InChI_Code_QSARr>
InChI=1S/C2H3Cl2NO2/c1-2(3,4)5(6)7/h1H3

> <InChI Key_QSARr>
OQOGEOLRYAOSKO-UHFFFAOYSA-N

> <Salt_Solvent>
?

> <WS Temperature>
20

> <WS Reference>
SHIU,WY ET AL. (1990)

> <dsstox_substance_id>
DTXSID4021638

> <LogMolar>
-1.7603

$$$$
595-41-5
  -INDIGO-01081615412D

 24 23  0  0  0  0  0  0  0  0999 V2000
    1.8779   -1.5757    0.0000 C   0  0  0  0  0  0  0  0  0  0  0  0
    1.5999    0.0000    0.0000 C   0  0  0  0  0  0  0  0  0  0  0  0
    3.1757    0.2778    0.0000 C   0  0  0  0  0  0  0  0  0  0  0  0
    4.7514    0.5556    0.0000 H   0  0  0  0  0  0  0  0  0  0  0  0
    4.2041   -0.9478    0.0000 H   0  0  0  0  0  0  0  0  0  0  0  0
    3.7229    1.7813    0.0000 H   0  0  0  0  0  0  0  0  0  0  0  0
   -0.0000    0.0000    0.0000 C   0  0  0  0  0  0  0  0  0  0  0  0
   -0.0000    1.6000    0.0000 C   0  0  0  0  0  0  0  0  0  0  0  0
   -0.0000    3.2000    0.0000 H   0  0  0  0  0  0  0  0  0  0  0  0
    1.2257    2.6285    0.0000 H   0  0  0  0  0  0  0  0  0  0  0  0
   -1.2256    2.6285    0.0000 H   0  0  0  0  0  0  0  0  0  0  0  0
   -0.0000   -1.6000    0.0000 O   0  0  0  0  0  0  0  0  0  0  0  0
   -1.2256   -2.6284    0.0000 H   0  0  0  0  0  0  0  0  0  0  0  0
   -1.6000    0.0000    0.0000 C   0  0  0  0  0  0  0  0  0  0  0  0
   -3.2000    0.0000    0.0000 C   0  0  0  0  0  0  0  0  0  0  0  0
   -4.8000    0.0000    0.0000 H   0  0  0  0  0  0  0  0  0  0  0  0
   -4.0000   -1.3857    0.0000 H   0  0  0  0  0  0  0  0  0  0  0  0
   -4.0000    1.3856    0.0000 H   0  0  0  0  0  0  0  0  0  0  0  0
   -1.6000   -1.6000    0.0000 H   0  0  0  0  0  0  0  0  0  0  0  0
   -1.6000    1.6000    0.0000 H   0  0  0  0  0  0  0  0  0  0  0  0
    1.5999    1.6000    0.0000 H   0  0  0  0  0  0  0  0  0  0  0  0
    2.1557   -3.1514    0.0000 H   0  0  0  0  0  0  0  0  0  0  0  0
    3.3814   -2.1229    0.0000 H   0  0  0  0  0  0  0  0  0  0  0  0
    0.6522   -2.6042    0.0000 H   0  0  0  0  0  0  0  0  0  0  0  0
  1  2  1  0  0  0  0
  2  3  1  0  0  0  0
  3  4  1  0  0  0  0
  3  5  1  0  0  0  0
  3  6  1  0  0  0  0
  2  7  1  0  0  0  0
  7  8  1  0  0  0  0
  8  9  1  0  0  0  0
  8 10  1  0  0  0  0
  8 11  1  0  0  0  0
  7 12  1  0  0  0  0
 12 13  1  0  0  0  0
  7 14  1  0  0  0  0
 14 15  1  0  0  0  0
 15 16  1  0  0  0  0
 15 17  1  0  0  0  0
 15 18  1  0  0  0  0
 14 19  1  0  0  0  0
 14 20  1  0  0  0  0
  2 21  1  0  0  0  0
  1 22  1  0  0  0  0
  1 23  1  0  0  0  0
  1 24  1  0  0  0  0
M  END
> <CAS>
595-41-5

> <NAME>
2,3-DIMETHYL-3-PENTANOL

> <preferred_name>


> <iupac>


> <SMILES>
CCC(C)(O)C(C)C

> <Canonical_QSARr>
CCC(C)(O)C(C)C

> <InChI_Code_QSARr>
InChI=1S/C7H16O/c1-5-7(4,8)6(2)3/h6,8H,5H2,1-4H3

> <InChI Key_QSARr>
RFZHJHSNHYIRNE-UHFFFAOYSA-N

> <Salt_Solvent>
?

> <WS Temperature>
25

> <WS Reference>
YALKOWSKY,SH & DANNENFELSER,RM (1992)

> <dsstox_substance_id>


> <LogMolar>
-0.8504

$$$$
597-31-9
  -INDIGO-01081615412D

 17 16  0  0  0  0  0  0  0  0999 V2000
    0.8000   -1.3856    0.0000 C   0  0  0  0  0  0  0  0  0  0  0  0
    0.0000   -2.7713    0.0000 O   0  0  0  0  0  0  0  0  0  0  0  0
    0.0000   -0.0000    0.0000 C   0  0  0  0  0  0  0  0  0  0  0  0
   -1.3856   -0.8000    0.0000 C   0  0  0  0  0  0  0  0  0  0  0  0
   -2.7713   -1.6000    0.0000 H   0  0  0  0  0  0  0  0  0  0  0  0
   -1.3856   -2.4000    0.0000 H   0  0  0  0  0  0  0  0  0  0  0  0
   -2.7713   -0.0000    0.0000 H   0  0  0  0  0  0  0  0  0  0  0  0
   -0.8000    1.3856    0.0000 C   0  0  0  0  0  0  0  0  0  0  0  0
   -1.6000    2.7713    0.0000 H   0  0  0  0  0  0  0  0  0  0  0  0
   -2.4000    1.3856    0.0000 H   0  0  0  0  0  0  0  0  0  0  0  0
    0.0000    2.7713    0.0000 H   0  0  0  0  0  0  0  0  0  0  0  0
    1.3856    0.8000    0.0000 C   0  0  0  0  0  0  0  0  0  0  0  0
    2.7713    1.6000    0.0000 O   0  0  0  0  0  0  0  0  0  0  0  0
    4.1569    0.8000    0.0000 H   0  0  0  0  0  0  0  0  0  0  0  0
    2.1856   -0.5856    0.0000 H   0  0  0  0  0  0  0  0  0  0  0  0
    1.1078    2.3757    0.0000 H   0  0  0  0  0  0  0  0  0  0  0  0
    2.3757   -1.6634    0.0000 H   0  0  0  0  0  0  0  0  0  0  0  0
  1  2  2  0  0  0  0
  1  3  1  0  0  0  0
  3  4  1  0  0  0  0
  4  5  1  0  0  0  0
  4  6  1  0  0  0  0
  4  7  1  0  0  0  0
  3  8  1  0  0  0  0
  8  9  1  0  0  0  0
  8 10  1  0  0  0  0
  8 11  1  0  0  0  0
  3 12  1  0  0  0  0
 12 13  1  0  0  0  0
 13 14  1  0  0  0  0
 12 15  1  0  0  0  0
 12 16  1  0  0  0  0
  1 17  1  0  0  0  0
M  END
> <CAS>
597-31-9

> <NAME>
3-HYDROXY-2,2-DIMETHYLPROPANAL

> <preferred_name>
Propanal, 3-hydroxy-2,2-dimethyl-

> <iupac>
3-hydroxy-2,2-dimethylpropanal

> <SMILES>
CC(C)(CO)C=O

> <Canonical_QSARr>
CC(C)(CO)C=O

> <InChI_Code_QSARr>
InChI=1S/C5H10O2/c1-5(2,3-6)4-7/h3,7H,4H2,1-2H3

> <InChI Key_QSARr>
JJMOMMLADQPZNY-UHFFFAOYSA-N

> <Salt_Solvent>
?

> <WS Temperature>


> <WS Reference>
BEILSTEIN

> <dsstox_substance_id>
DTXSID9027231

> <LogMolar>
-0.3279

$$$$
598-09-4
  -INDIGO-01081615412D

 13 13  0  0  0  0  0  0  0  0999 V2000
    0.0000    1.6000    0.0000 O   0  0  0  0  0  0  0  0  0  0  0  0
   -1.3857    0.8000    0.0000 C   0  0  0  0  0  0  0  0  0  0  0  0
   -2.4141    2.0257    0.0000 H   0  0  0  0  0  0  0  0  0  0  0  0
   -2.4141   -0.4257    0.0000 H   0  0  0  0  0  0  0  0  0  0  0  0
    0.0000    0.0000    0.0000 C   0  0  0  0  0  0  0  0  0  0  0  0
   -0.5472   -1.5035    0.0000 C   0  0  0  0  0  0  0  0  0  0  0  0
   -1.0945   -3.0070    0.0000 H   0  0  0  0  0  0  0  0  0  0  0  0
    0.4812   -2.7292    0.0000 H   0  0  0  0  0  0  0  0  0  0  0  0
   -2.1229   -1.7813    0.0000 H   0  0  0  0  0  0  0  0  0  0  0  0
    1.5757   -0.2778    0.0000 C   0  0  0  0  0  0  0  0  0  0  0  0
    3.1514   -0.5557    0.0000 Cl  0  0  0  0  0  0  0  0  0  0  0  0
    2.6041    0.9479    0.0000 H   0  0  0  0  0  0  0  0  0  0  0  0
    2.1230   -1.7813    0.0000 H   0  0  0  0  0  0  0  0  0  0  0  0
  1  2  1  0  0  0  0
  2  3  1  0  0  0  0
  2  4  1  0  0  0  0
  2  5  1  0  0  0  0
  5  1  1  0  0  0  0
  5  6  1  0  0  0  0
  6  7  1  0  0  0  0
  6  8  1  0  0  0  0
  6  9  1  0  0  0  0
  5 10  1  0  0  0  0
 10 11  1  0  0  0  0
 10 12  1  0  0  0  0
 10 13  1  0  0  0  0
M  END
> <CAS>
598-09-4

> <NAME>
OXIRANE, 2-(CHLOROMETHYL)-2-METHYL-

> <preferred_name>


> <iupac>


> <SMILES>
CC1(CCl)CO1

> <Canonical_QSARr>
CC1(CCl)CO1

> <InChI_Code_QSARr>
InChI=1S/C4H7ClO/c1-4(2-5)3-6-4/h2-3H2,1H3

> <InChI Key_QSARr>
VVHFXJOCUKBZFS-UHFFFAOYSA-N

> <Salt_Solvent>
?

> <WS Temperature>
20

> <WS Reference>
BEILSTEIN

> <dsstox_substance_id>


> <LogMolar>
-0.5504

$$$$
598-78-7
  -INDIGO-01081615412D

 11 10  0  0  0  0  0  0  0  0999 V2000
    1.6000    0.0000    0.0000 C   0  0  0  0  0  0  0  0  0  0  0  0
   -0.0000    0.0000    0.0000 C   0  0  0  0  0  0  0  0  0  0  0  0
   -1.6000   -0.0000    0.0000 C   0  0  0  0  0  0  0  0  0  0  0  0
   -2.4000    1.3856    0.0000 O   0  0  0  0  0  0  0  0  0  0  0  0
   -2.4000   -1.3856    0.0000 O   0  0  0  0  0  0  0  0  0  0  0  0
   -4.0000   -1.3856    0.0000 H   0  0  0  0  0  0  0  0  0  0  0  0
   -0.0000    1.6000    0.0000 Cl  0  0  0  0  0  0  0  0  0  0  0  0
   -0.0000   -1.6000    0.0000 H   0  0  0  0  0  0  0  0  0  0  0  0
    3.2000    0.0000    0.0000 H   0  0  0  0  0  0  0  0  0  0  0  0
    2.4000   -1.3856    0.0000 H   0  0  0  0  0  0  0  0  0  0  0  0
    2.4000    1.3856    0.0000 H   0  0  0  0  0  0  0  0  0  0  0  0
  1  2  1  0  0  0  0
  2  3  1  0  0  0  0
  3  4  2  0  0  0  0
  3  5  1  0  0  0  0
  5  6  1  0  0  0  0
  2  7  1  0  0  0  0
  2  8  1  0  0  0  0
  1  9  1  0  0  0  0
  1 10  1  0  0  0  0
  1 11  1  0  0  0  0
M  END
> <CAS>
598-78-7

> <NAME>
2-CHLOROPROPIONIC ACID

> <preferred_name>
2-Chloropropanoic acid

> <iupac>
2-chloropropanoic acid

> <SMILES>
CC(Cl)C(O)=O

> <Canonical_QSARr>
CC(Cl)C(O)=O

> <InChI_Code_QSARr>
InChI=1S/C3H5ClO2/c1-2(4)3(5)6/h2H,1H3,(H,5,6)

> <InChI Key_QSARr>
GAWAYYRQGQZKCR-UHFFFAOYSA-N

> <Salt_Solvent>
?

> <WS Temperature>
20

> <WS Reference>
YALKOWSKY,SH & DANNENFELSER,RM (1992)

> <dsstox_substance_id>
DTXSID0021545

> <LogMolar>
0.9645

$$$$
599-97-3
  -INDIGO-01081615412D

 22 21  0  0  0  0  0  0  0  0999 V2000
    2.7713    0.0000    0.0000 Cl  0  0  0  0  0  0  0  0  0  0  0  0
    1.3856   -0.8000    0.0000 C   0  0  0  0  0  0  0  0  0  0  0  0
    0.0000    0.0000    0.0000 C   0  0  0  0  0  0  0  0  0  0  0  0
   -1.3857    0.8001    0.0000 O   0  0  0  0  0  0  0  0  0  0  0  0
   -2.7713    0.0000    0.0000 C   0  0  0  0  0  0  0  0  0  0  0  0
   -4.1570   -0.8000    0.0000 C   0  0  0  0  0  0  0  0  0  0  0  0
   -5.5426   -1.6000    0.0000 H   0  0  0  0  0  0  0  0  0  0  0  0
   -5.5426    0.0000    0.0000 H   0  0  0  0  0  0  0  0  0  0  0  0
   -4.1569   -2.4000    0.0000 H   0  0  0  0  0  0  0  0  0  0  0  0
   -3.5713    1.3857    0.0000 H   0  0  0  0  0  0  0  0  0  0  0  0
   -1.9713   -1.3856    0.0000 H   0  0  0  0  0  0  0  0  0  0  0  0
    0.8000    1.3857    0.0000 O   0  0  0  0  0  0  0  0  0  0  0  0
    0.0000    2.7713    0.0000 C   0  0  0  0  0  0  0  0  0  0  0  0
   -0.8000    4.1569    0.0000 C   0  0  0  0  0  0  0  0  0  0  0  0
   -1.6000    5.5426    0.0000 H   0  0  0  0  0  0  0  0  0  0  0  0
    0.0000    5.5426    0.0000 H   0  0  0  0  0  0  0  0  0  0  0  0
   -2.4000    4.1569    0.0000 H   0  0  0  0  0  0  0  0  0  0  0  0
    1.3856    3.5713    0.0000 H   0  0  0  0  0  0  0  0  0  0  0  0
   -1.3857    1.9713    0.0000 H   0  0  0  0  0  0  0  0  0  0  0  0
   -0.8000   -1.3856    0.0000 H   0  0  0  0  0  0  0  0  0  0  0  0
    2.7713   -1.6000    0.0000 Cl  0  0  0  0  0  0  0  0  0  0  0  0
    1.3857   -2.4000    0.0000 Cl  0  0  0  0  0  0  0  0  0  0  0  0
  1  2  1  0  0  0  0
  2  3  1  0  0  0  0
  3  4  1  0  0  0  0
  4  5  1  0  0  0  0
  5  6  1  0  0  0  0
  6  7  1  0  0  0  0
  6  8  1  0  0  0  0
  6  9  1  0  0  0  0
  5 10  1  0  0  0  0
  5 11  1  0  0  0  0
  3 12  1  0  0  0  0
 12 13  1  0  0  0  0
 13 14  1  0  0  0  0
 14 15  1  0  0  0  0
 14 16  1  0  0  0  0
 14 17  1  0  0  0  0
 13 18  1  0  0  0  0
 13 19  1  0  0  0  0
  3 20  1  0  0  0  0
  2 21  1  0  0  0  0
  2 22  1  0  0  0  0
M  END
> <CAS>
599-97-3

> <NAME>
ETHANE, 1,1,1-TRICHLORO-2,2-DIETHOXY-

> <preferred_name>
Ethane, 1,1,1-trichloro-2,2-diethoxy-

> <iupac>
1,1,1-trichloro-2,2-diethoxyethane

> <SMILES>
CCOC(OCC)C(Cl)(Cl)Cl

> <Canonical_QSARr>
CCOC(OCC)C(Cl)(Cl)Cl

> <InChI_Code_QSARr>
InChI=1S/C6H11Cl3O2/c1-3-10-5(11-4-2)6(7,8)9/h5H,3-4H2,1-2H3

> <InChI Key_QSARr>
CGCJBAIEQANINV-UHFFFAOYSA-N

> <Salt_Solvent>
?

> <WS Temperature>


> <WS Reference>
BEILSTEIN

> <dsstox_substance_id>
DTXSID90208614

> <LogMolar>
-1.6464

$$$$
601-75-2
  -INDIGO-01081615412D

 17 16  0  0  0  0  0  0  0  0999 V2000
   -1.3857    2.4000    0.0000 O   0  0  0  0  0  0  0  0  0  0  0  0
    0.0001    1.6000    0.0000 C   0  0  0  0  0  0  0  0  0  0  0  0
    0.0001    0.0000    0.0000 C   0  0  0  0  0  0  0  0  0  0  0  0
   -1.5999    0.0000    0.0000 C   0  0  0  0  0  0  0  0  0  0  0  0
   -2.4000    1.3857    0.0000 O   0  0  0  0  0  0  0  0  0  0  0  0
   -2.4000   -1.3856    0.0000 O   0  0  0  0  0  0  0  0  0  0  0  0
   -4.0000   -1.3856    0.0000 H   0  0  0  0  0  0  0  0  0  0  0  0
    1.5757   -0.2778    0.0000 C   0  0  0  0  0  0  0  0  0  0  0  0
    3.1514   -0.5556    0.0000 C   0  0  0  0  0  0  0  0  0  0  0  0
    4.7271   -0.8335    0.0000 H   0  0  0  0  0  0  0  0  0  0  0  0
    3.6986   -2.0592    0.0000 H   0  0  0  0  0  0  0  0  0  0  0  0
    4.1799    0.6700    0.0000 H   0  0  0  0  0  0  0  0  0  0  0  0
    1.2979   -1.8536    0.0000 H   0  0  0  0  0  0  0  0  0  0  0  0
    1.8535    1.2978    0.0000 H   0  0  0  0  0  0  0  0  0  0  0  0
    0.0001   -1.6000    0.0000 H   0  0  0  0  0  0  0  0  0  0  0  0
    1.2257    2.6285    0.0000 O   0  0  0  0  0  0  0  0  0  0  0  0
   -1.3857    4.0000    0.0000 H   0  0  0  0  0  0  0  0  0  0  0  0
  1  2  1  0  0  0  0
  2  3  1  0  0  0  0
  3  4  1  0  0  0  0
  4  5  2  0  0  0  0
  4  6  1  0  0  0  0
  6  7  1  0  0  0  0
  3  8  1  0  0  0  0
  8  9  1  0  0  0  0
  9 10  1  0  0  0  0
  9 11  1  0  0  0  0
  9 12  1  0  0  0  0
  8 13  1  0  0  0  0
  8 14  1  0  0  0  0
  3 15  1  0  0  0  0
  2 16  2  0  0  0  0
  1 17  1  0  0  0  0
M  END
> <CAS>
601-75-2

> <NAME>
ETHYLMALONIC ACID

> <preferred_name>
Ethylmalonic acid

> <iupac>
2-ethylpropanedioic acid

> <SMILES>
CCC(C(O)=O)C(O)=O

> <Canonical_QSARr>
CCC(C(O)=O)C(O)=O

> <InChI_Code_QSARr>
InChI=1S/C5H8O4/c1-2-3(4(6)7)5(8)9/h3H,2H2,1H3,(H,6,7)(H,8,9)

> <InChI Key_QSARr>
UKFXDFUAPNAMPJ-UHFFFAOYSA-N

> <Salt_Solvent>
?

> <WS Temperature>
25

> <WS Reference>
YALKOWSKY,SH & DANNENFELSER,RM (1992)

> <dsstox_substance_id>
DTXSID00208842

> <LogMolar>
0.7315

$$$$
602-60-8
  -INDIGO-01081615412D

 26 28  0  0  0  0  0  0  0  0999 V2000
    2.7713   -0.0000    0.0000 C   0  0  0  0  0  0  0  0  0  0  0  0
    2.7713   -1.6000    0.0000 C   0  0  0  0  0  0  0  0  0  0  0  0
    4.1569   -2.4000    0.0000 H   0  0  0  0  0  0  0  0  0  0  0  0
    1.3856   -2.4000    0.0000 C   0  0  0  0  0  0  0  0  0  0  0  0
    1.3856   -4.0000    0.0000 H   0  0  0  0  0  0  0  0  0  0  0  0
   -0.0001   -1.6000    0.0000 C   0  0  0  0  0  0  0  0  0  0  0  0
   -1.3857   -2.4000    0.0000 C   0  0  0  0  0  0  0  0  0  0  0  0
   -2.7712   -1.6000    0.0000 C   0  0  0  0  0  0  0  0  0  0  0  0
   -4.1569   -2.4000    0.0000 C   0  0  0  0  0  0  0  0  0  0  0  0
   -4.1569   -4.0000    0.0000 H   0  0  0  0  0  0  0  0  0  0  0  0
   -5.5425   -1.6000    0.0000 C   0  0  0  0  0  0  0  0  0  0  0  0
   -6.9282   -2.4000    0.0000 H   0  0  0  0  0  0  0  0  0  0  0  0
   -5.5425   -0.0000    0.0000 C   0  0  0  0  0  0  0  0  0  0  0  0
   -6.9282    0.8000    0.0000 H   0  0  0  0  0  0  0  0  0  0  0  0
   -4.1569    0.8000    0.0000 C   0  0  0  0  0  0  0  0  0  0  0  0
   -4.1569    2.4000    0.0000 H   0  0  0  0  0  0  0  0  0  0  0  0
   -2.7712   -0.0000    0.0000 C   0  0  0  0  0  0  0  0  0  0  0  0
   -1.3857    0.8000    0.0000 C   0  0  0  0  0  0  0  0  0  0  0  0
   -1.3857    2.4000    0.0000 N   0  0  0  0  0  0  0  0  0  0  0  0
   -0.0001    3.2000    0.0000 O   0  0  0  0  0  0  0  0  0  0  0  0
   -2.7712    3.2000    0.0000 O   0  0  0  0  0  0  0  0  0  0  0  0
   -0.0001   -0.0000    0.0000 C   0  0  0  0  0  0  0  0  0  0  0  0
    1.3856    0.8000    0.0000 C   0  0  0  0  0  0  0  0  0  0  0  0
    1.3856    2.4000    0.0000 H   0  0  0  0  0  0  0  0  0  0  0  0
   -1.3857   -4.0000    0.0000 H   0  0  0  0  0  0  0  0  0  0  0  0
    4.1569    0.8000    0.0000 H   0  0  0  0  0  0  0  0  0  0  0  0
  1  2  4  0  0  0  0
  2  3  1  0  0  0  0
  2  4  4  0  0  0  0
  4  5  1  0  0  0  0
  4  6  4  0  0  0  0
  6  7  4  0  0  0  0
  7  8  4  0  0  0  0
  8  9  4  0  0  0  0
  9 10  1  0  0  0  0
  9 11  4  0  0  0  0
 11 12  1  0  0  0  0
 11 13  4  0  0  0  0
 13 14  1  0  0  0  0
 13 15  4  0  0  0  0
 15 16  1  0  0  0  0
 15 17  4  0  0  0  0
 17  8  4  0  0  0  0
 17 18  4  0  0  0  0
 18 19  1  0  0  0  0
 19 20  1  0  0  0  0
 19 21  2  0  0  0  0
 18 22  4  0  0  0  0
 22  6  4  0  0  0  0
 22 23  4  0  0  0  0
 23  1  4  0  0  0  0
 23 24  1  0  0  0  0
  7 25  1  0  0  0  0
  1 26  1  0  0  0  0
M  CHG  2  19   1  20  -1
M  END
> <CAS>
602-60-8

> <NAME>
ANTHRACENE, 9-NITRO-

> <preferred_name>
9-Nitroanthracene

> <iupac>
9-nitroanthracene

> <SMILES>
[O-][N+](=O)c1c2ccccc2cc2ccccc21

> <Canonical_QSARr>
[O-][N+](=O)c1c2ccccc2cc2ccccc21

> <InChI_Code_QSARr>
InChI=1S/C14H9NO2/c16-15(17)14-12-7-3-1-5-10(12)9-11-6-2-4-8-13(11)14/h1-9H

> <InChI Key_QSARr>
LSIKFJXEYJIZNB-UHFFFAOYSA-N

> <Salt_Solvent>
?

> <WS Temperature>
25

> <WS Reference>
GANG,Y & XIAOBAI,XU (1992)

> <dsstox_substance_id>
DTXSID5025730

> <LogMolar>
-6.2918

$$$$
603-00-9
  -INDIGO-01081615412D

 31 32  0  0  0  0  0  0  0  0999 V2000
    5.1541    0.6477    0.0000 N   0  0  0  0  0  0  0  0  0  0  0  0
    3.5540    0.6477    0.0000 C   0  0  0  0  0  0  0  0  0  0  0  0
    2.7541    2.0333    0.0000 O   0  0  0  0  0  0  0  0  0  0  0  0
    2.7541   -0.7380    0.0000 C   0  0  0  0  0  0  0  0  0  0  0  0
    1.1890   -1.0707    0.0000 N   0  0  0  1  0  0  0  0  0  0  0  0
    1.0217   -2.6619    0.0000 C   0  0  0  0  0  0  0  0  0  0  0  0
    2.4835   -3.3126    0.0000 N   0  0  0  1  0  0  0  0  0  0  0  0
    3.5540   -2.1236    0.0000 C   0  0  0  0  0  0  0  0  0  0  0  0
    5.1541   -2.1236    0.0000 N   0  0  0  0  0  0  0  0  0  0  0  0
    5.9540   -3.5092    0.0000 C   0  0  0  0  0  0  0  0  0  0  0  0
    6.7541   -4.8949    0.0000 H   0  0  0  0  0  0  0  0  0  0  0  0
    7.5541   -3.5092    0.0000 H   0  0  0  0  0  0  0  0  0  0  0  0
    5.1541   -4.8949    0.0000 H   0  0  0  0  0  0  0  0  0  0  0  0
    5.9540   -0.7380    0.0000 C   0  0  0  0  0  0  0  0  0  0  0  0
    7.5541   -0.7380    0.0000 O   0  0  0  0  0  0  0  0  0  0  0  0
   -0.3639   -3.4618    0.0000 H   0  0  0  0  0  0  0  0  0  0  0  0
   -0.0000    0.0000    0.0000 C   0  0  0  0  0  0  0  0  0  0  0  0
   -1.1890    1.0706    0.0000 C   0  0  0  0  0  0  0  0  0  0  0  0
   -2.2597   -0.1185    0.0000 O   0  0  0  0  0  0  0  0  0  0  0  0
   -3.8246    0.2142    0.0000 H   0  0  0  0  0  0  0  0  0  0  0  0
   -2.3780    2.1412    0.0000 C   0  0  0  0  0  0  0  0  0  0  0  0
   -3.5672    3.2119    0.0000 H   0  0  0  0  0  0  0  0  0  0  0  0
   -3.8998    1.6468    0.0000 H   0  0  0  0  0  0  0  0  0  0  0  0
   -2.0454    3.7063    0.0000 H   0  0  0  0  0  0  0  0  0  0  0  0
   -0.1183    2.2597    0.0000 H   0  0  0  0  0  0  0  0  0  0  0  0
   -1.0707   -1.1890    0.0000 H   0  0  0  0  0  0  0  0  0  0  0  0
    1.0706    1.1890    0.0000 H   0  0  0  0  0  0  0  0  0  0  0  0
    5.9540    2.0333    0.0000 C   0  0  0  0  0  0  0  0  0  0  0  0
    6.7541    3.4190    0.0000 H   0  0  0  0  0  0  0  0  0  0  0  0
    7.5541    2.0333    0.0000 H   0  0  0  0  0  0  0  0  0  0  0  0
    5.1541    3.4190    0.0000 H   0  0  0  0  0  0  0  0  0  0  0  0
  1  2  1  0  0  0  0
  2  3  2  0  0  0  0
  2  4  1  0  0  0  0
  4  5  4  0  0  0  0
  5  6  4  0  0  0  0
  6  7  4  0  0  0  0
  7  8  4  0  0  0  0
  8  4  4  0  0  0  0
  8  9  1  0  0  0  0
  9 10  1  0  0  0  0
 10 11  1  0  0  0  0
 10 12  1  0  0  0  0
 10 13  1  0  0  0  0
  9 14  1  0  0  0  0
 14  1  1  0  0  0  0
 14 15  2  0  0  0  0
  6 16  1  0  0  0  0
  5 17  1  0  0  0  0
 17 18  1  0  0  0  0
 18 19  1  0  0  0  0
 19 20  1  0  0  0  0
 18 21  1  0  0  0  0
 21 22  1  0  0  0  0
 21 23  1  0  0  0  0
 21 24  1  0  0  0  0
 18 25  1  0  0  0  0
 17 26  1  0  0  0  0
 17 27  1  0  0  0  0
  1 28  1  0  0  0  0
 28 29  1  0  0  0  0
 28 30  1  0  0  0  0
 28 31  1  0  0  0  0
M  END
> <CAS>
603-00-9

> <NAME>
PROXYPHYLLINE

> <preferred_name>
Proxyphylline

> <iupac>
7-(2-hydroxypropyl)-1,3-dimethyl-3,7-dihydro-1H-purine-2,6-dione

> <SMILES>
CC(O)C[n]1c[n]c2c1C(=O)N(C)C(=O)N2C

> <Canonical_QSARr>
CC(O)C[n]1c[n]c2c1C(=O)N(C)C(=O)N2C

> <InChI_Code_QSARr>
InChI=1S/C10H14N4O3/c1-6(15)4-14-5-11-8-7(14)9(16)13(3)10(17)12(8)2/h5-6,15H,4H2,1-3H3

> <InChI Key_QSARr>
KYHQZNGJUGFTGR-UHFFFAOYSA-N

> <Salt_Solvent>
?

> <WS Temperature>
25

> <WS Reference>
MERCK INDEX (1996)

> <dsstox_substance_id>
DTXSID5023536

> <LogMolar>
0.623

$$$$
606-20-2
  -INDIGO-01081615412D

 19 19  0  0  0  0  0  0  0  0999 V2000
   -0.8000    1.3856    0.0000 C   0  0  0  0  0  0  0  0  0  0  0  0
    0.0000    0.0000    0.0000 C   0  0  0  0  0  0  0  0  0  0  0  0
   -0.8000   -1.3856    0.0000 C   0  0  0  0  0  0  0  0  0  0  0  0
   -2.4000   -1.3856    0.0000 N   0  0  0  0  0  0  0  0  0  0  0  0
   -3.2000   -2.7713    0.0000 O   0  0  0  0  0  0  0  0  0  0  0  0
   -3.2000    0.0000    0.0000 O   0  0  0  0  0  0  0  0  0  0  0  0
    0.0000   -2.7713    0.0000 C   0  0  0  0  0  0  0  0  0  0  0  0
   -0.8000   -4.1569    0.0000 H   0  0  0  0  0  0  0  0  0  0  0  0
    1.6000   -2.7713    0.0000 C   0  0  0  0  0  0  0  0  0  0  0  0
    2.4000   -4.1569    0.0000 H   0  0  0  0  0  0  0  0  0  0  0  0
    2.4000   -1.3856    0.0000 C   0  0  0  0  0  0  0  0  0  0  0  0
    4.0000   -1.3856    0.0000 H   0  0  0  0  0  0  0  0  0  0  0  0
    1.6000    0.0000    0.0000 C   0  0  0  0  0  0  0  0  0  0  0  0
    2.4000    1.3856    0.0000 N   0  0  0  0  0  0  0  0  0  0  0  0
    4.0000    1.3856    0.0000 O   0  0  0  0  0  0  0  0  0  0  0  0
    1.6000    2.7713    0.0000 O   0  0  0  0  0  0  0  0  0  0  0  0
   -1.6000    2.7713    0.0000 H   0  0  0  0  0  0  0  0  0  0  0  0
   -2.4000    1.3856    0.0000 H   0  0  0  0  0  0  0  0  0  0  0  0
    0.0000    2.7713    0.0000 H   0  0  0  0  0  0  0  0  0  0  0  0
  1  2  1  0  0  0  0
  2  3  4  0  0  0  0
  3  4  1  0  0  0  0
  4  5  1  0  0  0  0
  4  6  2  0  0  0  0
  3  7  4  0  0  0  0
  7  8  1  0  0  0  0
  7  9  4  0  0  0  0
  9 10  1  0  0  0  0
  9 11  4  0  0  0  0
 11 12  1  0  0  0  0
 11 13  4  0  0  0  0
 13  2  4  0  0  0  0
 13 14  1  0  0  0  0
 14 15  1  0  0  0  0
 14 16  2  0  0  0  0
  1 17  1  0  0  0  0
  1 18  1  0  0  0  0
  1 19  1  0  0  0  0
M  CHG  4   4   1   5  -1  14   1  15  -1
M  END
> <CAS>
606-20-2

> <NAME>
2,6-DINITROTOLUENE

> <preferred_name>
2,6-Dinitrotoluene

> <iupac>
2-methyl-1,3-dinitrobenzene

> <SMILES>
Cc1c(cccc1[N+]([O-])=O)[N+]([O-])=O

> <Canonical_QSARr>
Cc1c(cccc1[N+]([O-])=O)[N+]([O-])=O

> <InChI_Code_QSARr>
InChI=1S/C7H6N2O4/c1-5-6(8(10)11)3-2-4-7(5)9(12)13/h2-4H,1H3

> <InChI Key_QSARr>
XTRDKALNCIHHNI-UHFFFAOYSA-N

> <Salt_Solvent>
?

> <WS Temperature>
20

> <WS Reference>
SPANGGORD,RJ ET AL. (1980)

> <dsstox_substance_id>
DTXSID5020528

> <LogMolar>
-3.0003

$$$$
606-43-9
  -INDIGO-01081615412D

 21 22  0  0  0  0  0  0  0  0999 V2000
   -0.0000    0.0000    0.0000 C   0  0  0  0  0  0  0  0  0  0  0  0
   -0.8000    1.3856    0.0000 C   0  0  0  0  0  0  0  0  0  0  0  0
   -0.0000    2.7713    0.0000 H   0  0  0  0  0  0  0  0  0  0  0  0
   -2.4000    1.3856    0.0000 C   0  0  0  0  0  0  0  0  0  0  0  0
   -3.2001    2.7713    0.0000 H   0  0  0  0  0  0  0  0  0  0  0  0
   -3.2001    0.0000    0.0000 C   0  0  0  0  0  0  0  0  0  0  0  0
   -4.8000    0.0000    0.0000 H   0  0  0  0  0  0  0  0  0  0  0  0
   -2.4000   -1.3856    0.0000 C   0  0  0  0  0  0  0  0  0  0  0  0
   -3.2001   -2.7713    0.0000 H   0  0  0  0  0  0  0  0  0  0  0  0
   -0.8000   -1.3856    0.0000 C   0  0  0  0  0  0  0  0  0  0  0  0
   -0.0000   -2.7713    0.0000 C   0  0  0  0  0  0  0  0  0  0  0  0
   -0.8000   -4.1569    0.0000 H   0  0  0  0  0  0  0  0  0  0  0  0
    1.6000   -2.7713    0.0000 C   0  0  0  0  0  0  0  0  0  0  0  0
    2.4001   -4.1569    0.0000 H   0  0  0  0  0  0  0  0  0  0  0  0
    2.4001   -1.3856    0.0000 C   0  0  0  0  0  0  0  0  0  0  0  0
    4.0000   -1.3856    0.0000 O   0  0  0  0  0  0  0  0  0  0  0  0
    1.6000    0.0000    0.0000 N   0  0  0  0  0  0  0  0  0  0  0  0
    2.4001    1.3856    0.0000 C   0  0  0  0  0  0  0  0  0  0  0  0
    3.2000    2.7713    0.0000 H   0  0  0  0  0  0  0  0  0  0  0  0
    4.0000    1.3856    0.0000 H   0  0  0  0  0  0  0  0  0  0  0  0
    1.6000    2.7713    0.0000 H   0  0  0  0  0  0  0  0  0  0  0  0
  1  2  4  0  0  0  0
  2  3  1  0  0  0  0
  2  4  4  0  0  0  0
  4  5  1  0  0  0  0
  4  6  4  0  0  0  0
  6  7  1  0  0  0  0
  6  8  4  0  0  0  0
  8  9  1  0  0  0  0
  8 10  4  0  0  0  0
 10  1  4  0  0  0  0
 10 11  1  0  0  0  0
 11 12  1  0  0  0  0
 11 13  2  0  0  0  0
 13 14  1  0  0  0  0
 13 15  1  0  0  0  0
 15 16  2  0  0  0  0
 15 17  1  0  0  0  0
 17  1  1  0  0  0  0
 17 18  1  0  0  0  0
 18 19  1  0  0  0  0
 18 20  1  0  0  0  0
 18 21  1  0  0  0  0
M  END
> <CAS>
606-43-9

> <NAME>
1-METHYL-2(H)-QUINOLINONE

> <preferred_name>
2(1H)-Quinolinone, 1-methyl-

> <iupac>
1-methylquinolin-2-one

> <SMILES>
CN1C(=O)C=Cc2ccccc12

> <Canonical_QSARr>
CN1C(=O)C=Cc2ccccc12

> <InChI_Code_QSARr>
InChI=1S/C10H9NO/c1-11-9-5-3-2-4-8(9)6-7-10(11)12/h2-7H,1H3

> <InChI Key_QSARr>
QYEMNJMSULGQRD-UHFFFAOYSA-N

> <Salt_Solvent>
?

> <WS Temperature>
25

> <WS Reference>
BEILSTEIN

> <dsstox_substance_id>
DTXSID1060552

> <LogMolar>
-1.0466

$$$$
608-21-9
  -INDIGO-01081615412D

 12 12  0  0  0  0  0  0  0  0999 V2000
    0.0000   -0.0000    0.0000 C   0  0  0  0  0  0  0  0  0  0  0  0
   -0.8000    1.3856    0.0000 Br  0  0  0  0  0  0  0  0  0  0  0  0
   -0.8000   -1.3857    0.0000 C   0  0  0  0  0  0  0  0  0  0  0  0
   -2.4000   -1.3857    0.0000 Br  0  0  0  0  0  0  0  0  0  0  0  0
    0.0000   -2.7713    0.0000 C   0  0  0  0  0  0  0  0  0  0  0  0
   -0.8000   -4.1569    0.0000 Br  0  0  0  0  0  0  0  0  0  0  0  0
    1.6000   -2.7713    0.0000 C   0  0  0  0  0  0  0  0  0  0  0  0
    2.4000   -4.1569    0.0000 H   0  0  0  0  0  0  0  0  0  0  0  0
    2.4000   -1.3857    0.0000 C   0  0  0  0  0  0  0  0  0  0  0  0
    4.0000   -1.3857    0.0000 H   0  0  0  0  0  0  0  0  0  0  0  0
    1.6000   -0.0000    0.0000 C   0  0  0  0  0  0  0  0  0  0  0  0
    2.4000    1.3856    0.0000 H   0  0  0  0  0  0  0  0  0  0  0  0
  1  2  1  0  0  0  0
  1  3  4  0  0  0  0
  3  4  1  0  0  0  0
  3  5  4  0  0  0  0
  5  6  1  0  0  0  0
  5  7  4  0  0  0  0
  7  8  1  0  0  0  0
  7  9  4  0  0  0  0
  9 10  1  0  0  0  0
  9 11  4  0  0  0  0
 11  1  4  0  0  0  0
 11 12  1  0  0  0  0
M  END
> <CAS>
608-21-9

> <NAME>
1,2,3-TRIBROMOBENZENE

> <preferred_name>


> <iupac>


> <SMILES>
Brc1c(Br)cccc1Br

> <Canonical_QSARr>
Brc1c(Br)cccc1Br

> <InChI_Code_QSARr>
InChI=1S/C6H3Br3/c7-4-2-1-3-5(8)6(4)9/h1-3H

> <InChI Key_QSARr>
GMVJKSNPLYBFSO-UHFFFAOYSA-N

> <Salt_Solvent>
?

> <WS Temperature>
25

> <WS Reference>
KUHNE,R ET AL. (1995)

> <dsstox_substance_id>


> <LogMolar>
-5.0402

$$$$
608-93-5
  -INDIGO-01081615412D

 12 12  0  0  0  0  0  0  0  0999 V2000
    0.0000   -0.0000    0.0000 C   0  0  0  0  0  0  0  0  0  0  0  0
   -0.8000    1.3856    0.0000 Cl  0  0  0  0  0  0  0  0  0  0  0  0
   -0.8000   -1.3857    0.0000 C   0  0  0  0  0  0  0  0  0  0  0  0
   -2.4000   -1.3857    0.0000 H   0  0  0  0  0  0  0  0  0  0  0  0
    0.0000   -2.7713    0.0000 C   0  0  0  0  0  0  0  0  0  0  0  0
   -0.8000   -4.1569    0.0000 Cl  0  0  0  0  0  0  0  0  0  0  0  0
    1.6000   -2.7713    0.0000 C   0  0  0  0  0  0  0  0  0  0  0  0
    2.4000   -4.1569    0.0000 Cl  0  0  0  0  0  0  0  0  0  0  0  0
    2.4000   -1.3857    0.0000 C   0  0  0  0  0  0  0  0  0  0  0  0
    4.0000   -1.3857    0.0000 Cl  0  0  0  0  0  0  0  0  0  0  0  0
    1.6000   -0.0000    0.0000 C   0  0  0  0  0  0  0  0  0  0  0  0
    2.4000    1.3856    0.0000 Cl  0  0  0  0  0  0  0  0  0  0  0  0
  1  2  1  0  0  0  0
  1  3  4  0  0  0  0
  3  4  1  0  0  0  0
  3  5  4  0  0  0  0
  5  6  1  0  0  0  0
  5  7  4  0  0  0  0
  7  8  1  0  0  0  0
  7  9  4  0  0  0  0
  9 10  1  0  0  0  0
  9 11  4  0  0  0  0
 11  1  4  0  0  0  0
 11 12  1  0  0  0  0
M  END
> <CAS>
608-93-5

> <NAME>
PENTACHLOROBENZENE

> <preferred_name>
Pentachlorobenzene

> <iupac>
1,2,3,4,5-pentachlorobenzene

> <SMILES>
Clc1c(Cl)c(Cl)cc(Cl)c1Cl

> <Canonical_QSARr>
Clc1c(Cl)c(Cl)cc(Cl)c1Cl

> <InChI_Code_QSARr>
InChI=1S/C6HCl5/c7-2-1-3(8)5(10)6(11)4(2)9/h1H

> <InChI Key_QSARr>
CEOCDNVZRAIOQZ-UHFFFAOYSA-N

> <Salt_Solvent>
?

> <WS Temperature>
25

> <WS Reference>
YALKOWSKY,SH & DANNENFELSER,RM (1992)

> <dsstox_substance_id>
DTXSID7024247

> <LogMolar>
-5.4789

$$$$
609-89-2
  -INDIGO-01081615412D

 15 15  0  0  0  0  0  0  0  0999 V2000
   -1.3856    4.0000    0.0000 Cl  0  0  0  0  0  0  0  0  0  0  0  0
   -1.3856    2.4000    0.0000 C   0  0  0  0  0  0  0  0  0  0  0  0
   -2.7713    1.6000    0.0000 C   0  0  0  0  0  0  0  0  0  0  0  0
   -4.1569    2.4000    0.0000 H   0  0  0  0  0  0  0  0  0  0  0  0
   -2.7713    0.0000    0.0000 C   0  0  0  0  0  0  0  0  0  0  0  0
   -4.1569   -0.8000    0.0000 Cl  0  0  0  0  0  0  0  0  0  0  0  0
   -1.3856   -0.8000    0.0000 C   0  0  0  0  0  0  0  0  0  0  0  0
   -1.3856   -2.4000    0.0000 H   0  0  0  0  0  0  0  0  0  0  0  0
    0.0000    0.0000    0.0000 C   0  0  0  0  0  0  0  0  0  0  0  0
    1.3856   -0.8000    0.0000 N   0  0  0  0  0  0  0  0  0  0  0  0
    1.3856   -2.4000    0.0000 O   0  0  0  0  0  0  0  0  0  0  0  0
    2.7713    0.0000    0.0000 O   0  0  0  0  0  0  0  0  0  0  0  0
    0.0000    1.6000    0.0000 C   0  0  0  0  0  0  0  0  0  0  0  0
    1.3856    2.4000    0.0000 O   0  0  0  0  0  0  0  0  0  0  0  0
    1.3856    4.0000    0.0000 H   0  0  0  0  0  0  0  0  0  0  0  0
  1  2  1  0  0  0  0
  2  3  4  0  0  0  0
  3  4  1  0  0  0  0
  3  5  4  0  0  0  0
  5  6  1  0  0  0  0
  5  7  4  0  0  0  0
  7  8  1  0  0  0  0
  7  9  4  0  0  0  0
  9 10  1  0  0  0  0
 10 11  2  0  0  0  0
 10 12  1  0  0  0  0
  9 13  4  0  0  0  0
 13  2  4  0  0  0  0
 13 14  1  0  0  0  0
 14 15  1  0  0  0  0
M  CHG  2  10   1  12  -1
M  END
> <CAS>
609-89-2

> <NAME>
2,4-DICHLORO-6-NITROPHENOL

> <preferred_name>
Phenol, 2,4-dichloro-6-nitro-

> <iupac>
2,4-Dichloro-6-nitrophenol

> <SMILES>
[O-][N+](=O)c1cc(Cl)cc(Cl)c1O

> <Canonical_QSARr>
[O-][N+](=O)c1cc(Cl)cc(Cl)c1O

> <InChI_Code_QSARr>
InChI=1S/C6H3Cl2NO3/c7-3-1-4(8)6(10)5(2-3)9(11)12/h1-2,10H

> <InChI Key_QSARr>
LYPMXMBQPXPNIQ-UHFFFAOYSA-N

> <Salt_Solvent>
?

> <WS Temperature>
25

> <WS Reference>
CHEMICALS INSPECTION AND TESTING INSTITU (1992)

> <dsstox_substance_id>
DTXSID00209738

> <LogMolar>
-4.0876

$$$$
610-04-8
  -INDIGO-01081615412D

 18 18  0  0  0  0  0  0  0  0999 V2000
   -2.4001    1.3856    0.0000 O   0  0  0  0  0  0  0  0  0  0  0  0
   -1.6000    0.0000    0.0000 C   0  0  0  0  0  0  0  0  0  0  0  0
   -2.3999   -1.3856    0.0000 C   0  0  0  0  0  0  0  0  0  0  0  0
   -3.9999   -1.3856    0.0000 C   0  0  0  0  0  0  0  0  0  0  0  0
   -4.8000   -2.7713    0.0000 O   0  0  0  0  0  0  0  0  0  0  0  0
   -4.8000    0.0000    0.0000 H   0  0  0  0  0  0  0  0  0  0  0  0
   -1.6000   -2.7713    0.0000 C   0  0  0  0  0  0  0  0  0  0  0  0
   -2.3999   -4.1569    0.0000 H   0  0  0  0  0  0  0  0  0  0  0  0
    0.0000   -2.7713    0.0000 C   0  0  0  0  0  0  0  0  0  0  0  0
    0.8001   -4.1569    0.0000 H   0  0  0  0  0  0  0  0  0  0  0  0
    0.8001   -1.3856    0.0000 C   0  0  0  0  0  0  0  0  0  0  0  0
    2.4001   -1.3856    0.0000 H   0  0  0  0  0  0  0  0  0  0  0  0
    0.0000    0.0000    0.0000 C   0  0  0  0  0  0  0  0  0  0  0  0
    0.8001    1.3856    0.0000 C   0  0  0  0  0  0  0  0  0  0  0  0
    0.0000    2.7713    0.0000 O   0  0  0  0  0  0  0  0  0  0  0  0
    2.4001    1.3856    0.0000 O   0  0  0  0  0  0  0  0  0  0  0  0
    3.2000    2.7713    0.0000 H   0  0  0  0  0  0  0  0  0  0  0  0
   -3.9999    1.3856    0.0000 H   0  0  0  0  0  0  0  0  0  0  0  0
  1  2  1  0  0  0  0
  2  3  4  0  0  0  0
  3  4  1  0  0  0  0
  4  5  2  0  0  0  0
  4  6  1  0  0  0  0
  3  7  4  0  0  0  0
  7  8  1  0  0  0  0
  7  9  4  0  0  0  0
  9 10  1  0  0  0  0
  9 11  4  0  0  0  0
 11 12  1  0  0  0  0
 11 13  4  0  0  0  0
 13  2  4  0  0  0  0
 13 14  1  0  0  0  0
 14 15  2  0  0  0  0
 14 16  1  0  0  0  0
 16 17  1  0  0  0  0
  1 18  1  0  0  0  0
M  END
> <CAS>
610-04-8

> <NAME>
Benzoic acid, 3-formyl-2-hydroxy-

> <preferred_name>
Isophthalaldehydic acid, 2-hydroxy-

> <iupac>
3-Formyl-2-hydroxybenzoic acid

> <SMILES>
OC(=O)c1cccc(C=O)c1O

> <Canonical_QSARr>
OC(=O)c1cccc(C=O)c1O

> <InChI_Code_QSARr>
InChI=1S/C8H6O4/c9-4-5-2-1-3-6(7(5)10)8(11)12/h1-4,10H,(H,11,12)

> <InChI Key_QSARr>
YOEUNKPREOJHBW-UHFFFAOYSA-N

> <Salt_Solvent>
?

> <WS Temperature>
24

> <WS Reference>
BEILSTEIN

> <dsstox_substance_id>
DTXSID80209852

> <LogMolar>
-2.4423

$$$$
610-48-0
  -INDIGO-01081615412D

 27 29  0  0  0  0  0  0  0  0999 V2000
    0.0001    0.0001    0.0000 C   0  0  0  0  0  0  0  0  0  0  0  0
   -1.3856    0.8000    0.0000 C   0  0  0  0  0  0  0  0  0  0  0  0
   -1.3856    2.4000    0.0000 C   0  0  0  0  0  0  0  0  0  0  0  0
   -1.3856    4.0000    0.0000 H   0  0  0  0  0  0  0  0  0  0  0  0
   -2.7713    3.2001    0.0000 H   0  0  0  0  0  0  0  0  0  0  0  0
    0.0001    3.2001    0.0000 H   0  0  0  0  0  0  0  0  0  0  0  0
   -2.7713   -0.0001    0.0000 C   0  0  0  0  0  0  0  0  0  0  0  0
   -4.1569    0.8000    0.0000 H   0  0  0  0  0  0  0  0  0  0  0  0
   -2.7713   -1.5999    0.0000 C   0  0  0  0  0  0  0  0  0  0  0  0
   -4.1569   -2.4000    0.0000 H   0  0  0  0  0  0  0  0  0  0  0  0
   -1.3856   -2.4000    0.0000 C   0  0  0  0  0  0  0  0  0  0  0  0
   -1.3856   -4.0000    0.0000 H   0  0  0  0  0  0  0  0  0  0  0  0
    0.0001   -1.5999    0.0000 C   0  0  0  0  0  0  0  0  0  0  0  0
    1.3857   -2.4000    0.0000 C   0  0  0  0  0  0  0  0  0  0  0  0
    1.3857   -4.0000    0.0000 H   0  0  0  0  0  0  0  0  0  0  0  0
    2.7712   -1.5999    0.0000 C   0  0  0  0  0  0  0  0  0  0  0  0
    2.7712    0.0001    0.0000 C   0  0  0  0  0  0  0  0  0  0  0  0
    4.1569    0.8000    0.0000 C   0  0  0  0  0  0  0  0  0  0  0  0
    5.5425   -0.0001    0.0000 C   0  0  0  0  0  0  0  0  0  0  0  0
    5.5425   -1.5999    0.0000 C   0  0  0  0  0  0  0  0  0  0  0  0
    4.1569   -2.4000    0.0000 C   0  0  0  0  0  0  0  0  0  0  0  0
    4.1569   -4.0000    0.0000 H   0  0  0  0  0  0  0  0  0  0  0  0
    6.9282   -2.4000    0.0000 H   0  0  0  0  0  0  0  0  0  0  0  0
    6.9282    0.8000    0.0000 H   0  0  0  0  0  0  0  0  0  0  0  0
    4.1569    2.4000    0.0000 H   0  0  0  0  0  0  0  0  0  0  0  0
    1.3857    0.8000    0.0000 C   0  0  0  0  0  0  0  0  0  0  0  0
    1.3856    2.4000    0.0000 H   0  0  0  0  0  0  0  0  0  0  0  0
  1  2  4  0  0  0  0
  2  3  1  0  0  0  0
  3  4  1  0  0  0  0
  3  5  1  0  0  0  0
  3  6  1  0  0  0  0
  2  7  4  0  0  0  0
  7  8  1  0  0  0  0
  7  9  4  0  0  0  0
  9 10  1  0  0  0  0
  9 11  4  0  0  0  0
 11 12  1  0  0  0  0
 11 13  4  0  0  0  0
 13  1  4  0  0  0  0
 13 14  4  0  0  0  0
 14 15  1  0  0  0  0
 14 16  4  0  0  0  0
 16 17  4  0  0  0  0
 17 18  4  0  0  0  0
 18 19  4  0  0  0  0
 19 20  4  0  0  0  0
 20 21  4  0  0  0  0
 21 16  4  0  0  0  0
 21 22  1  0  0  0  0
 20 23  1  0  0  0  0
 19 24  1  0  0  0  0
 18 25  1  0  0  0  0
 17 26  4  0  0  0  0
 26  1  4  0  0  0  0
 26 27  1  0  0  0  0
M  END
> <CAS>
610-48-0

> <NAME>
1-METHYLANTHRACENE

> <preferred_name>
Anthracene, 1-methyl-

> <iupac>
1-METHYLANTHRACENE

> <SMILES>
Cc1cccc2cc3ccccc3cc21

> <Canonical_QSARr>
Cc1cccc2cc3ccccc3cc21

> <InChI_Code_QSARr>
InChI=1S/C15H12/c1-11-5-4-8-14-9-12-6-2-3-7-13(12)10-15(11)14/h2-10H,1H3

> <InChI Key_QSARr>
KZNJSFHJUQDYHE-UHFFFAOYSA-N

> <Salt_Solvent>
?

> <WS Temperature>
25

> <WS Reference>
MAY,WE & WASIK,SP (1978)

> <dsstox_substance_id>
DTXSID3074787

> <LogMolar>
-5.8541

$$$$
612-25-9
  -INDIGO-01081615412D

 18 18  0  0  0  0  0  0  0  0999 V2000
   -1.6000    2.7713    0.0000 O   0  0  0  0  0  0  0  0  0  0  0  0
   -0.8000    1.3856    0.0000 C   0  0  0  0  0  0  0  0  0  0  0  0
    0.0000    0.0000    0.0000 C   0  0  0  0  0  0  0  0  0  0  0  0
   -0.8000   -1.3856    0.0000 C   0  0  0  0  0  0  0  0  0  0  0  0
   -2.4000   -1.3856    0.0000 H   0  0  0  0  0  0  0  0  0  0  0  0
    0.0000   -2.7713    0.0000 C   0  0  0  0  0  0  0  0  0  0  0  0
   -0.8000   -4.1569    0.0000 H   0  0  0  0  0  0  0  0  0  0  0  0
    1.6000   -2.7713    0.0000 C   0  0  0  0  0  0  0  0  0  0  0  0
    2.4000   -4.1569    0.0000 H   0  0  0  0  0  0  0  0  0  0  0  0
    2.4000   -1.3856    0.0000 C   0  0  0  0  0  0  0  0  0  0  0  0
    4.0000   -1.3856    0.0000 H   0  0  0  0  0  0  0  0  0  0  0  0
    1.6000    0.0000    0.0000 C   0  0  0  0  0  0  0  0  0  0  0  0
    2.4000    1.3856    0.0000 N   0  0  0  0  0  0  0  0  0  0  0  0
    4.0000    1.3856    0.0000 O   0  0  0  0  0  0  0  0  0  0  0  0
    1.6000    2.7713    0.0000 O   0  0  0  0  0  0  0  0  0  0  0  0
   -2.1856    0.5857    0.0000 H   0  0  0  0  0  0  0  0  0  0  0  0
    0.5856    2.1856    0.0000 H   0  0  0  0  0  0  0  0  0  0  0  0
   -3.2000    2.7713    0.0000 H   0  0  0  0  0  0  0  0  0  0  0  0
  1  2  1  0  0  0  0
  2  3  1  0  0  0  0
  3  4  4  0  0  0  0
  4  5  1  0  0  0  0
  4  6  4  0  0  0  0
  6  7  1  0  0  0  0
  6  8  4  0  0  0  0
  8  9  1  0  0  0  0
  8 10  4  0  0  0  0
 10 11  1  0  0  0  0
 10 12  4  0  0  0  0
 12  3  4  0  0  0  0
 12 13  1  0  0  0  0
 13 14  2  0  0  0  0
 13 15  1  0  0  0  0
  2 16  1  0  0  0  0
  2 17  1  0  0  0  0
  1 18  1  0  0  0  0
M  CHG  2  13   1  15  -1
M  END
> <CAS>
612-25-9

> <NAME>
2-NITROBENZYL ALCOHOL

> <preferred_name>
2-Nitrobenzyl alcohol

> <iupac>


> <SMILES>
[O-][N+](=O)c1ccccc1CO

> <Canonical_QSARr>
[O-][N+](=O)c1ccccc1CO

> <InChI_Code_QSARr>
InChI=1S/C7H7NO3/c9-5-6-3-1-2-4-7(6)8(10)11/h1-4,9H,5H2

> <InChI Key_QSARr>
BWRBVBFLFQKBPT-UHFFFAOYSA-N

> <Salt_Solvent>
?

> <WS Temperature>
20

> <WS Reference>
BEILSTEIN

> <dsstox_substance_id>
DTXSID40210101

> <LogMolar>
-1.4861

$$$$
614-18-6
  -INDIGO-01081615412D

 20 20  0  0  0  0  0  0  0  0999 V2000
    5.5425    1.6000    0.0000 C   0  0  0  0  0  0  0  0  0  0  0  0
    4.1569    0.8000    0.0000 C   0  0  0  0  0  0  0  0  0  0  0  0
    2.7712   -0.0000    0.0000 O   0  0  0  0  0  0  0  0  0  0  0  0
    1.3857    0.8000    0.0000 C   0  0  0  0  0  0  0  0  0  0  0  0
    0.0001   -0.0000    0.0000 C   0  0  0  0  0  0  0  0  0  0  0  0
   -1.3856    0.8000    0.0000 C   0  0  0  0  0  0  0  0  0  0  0  0
   -1.3856    2.4000    0.0000 H   0  0  0  0  0  0  0  0  0  0  0  0
   -2.7713   -0.0000    0.0000 C   0  0  0  0  0  0  0  0  0  0  0  0
   -4.1569    0.8000    0.0000 H   0  0  0  0  0  0  0  0  0  0  0  0
   -2.7713   -1.6000    0.0000 C   0  0  0  0  0  0  0  0  0  0  0  0
   -4.1569   -2.4000    0.0000 H   0  0  0  0  0  0  0  0  0  0  0  0
   -1.3856   -2.4000    0.0000 N   0  0  0  1  0  0  0  0  0  0  0  0
    0.0001   -1.6000    0.0000 C   0  0  0  0  0  0  0  0  0  0  0  0
    1.3857   -2.4000    0.0000 H   0  0  0  0  0  0  0  0  0  0  0  0
    1.3856    2.4000    0.0000 O   0  0  0  0  0  0  0  0  0  0  0  0
    4.9569   -0.5856    0.0000 H   0  0  0  0  0  0  0  0  0  0  0  0
    3.3570    2.1856    0.0000 H   0  0  0  0  0  0  0  0  0  0  0  0
    6.9282    2.4000    0.0000 H   0  0  0  0  0  0  0  0  0  0  0  0
    6.9282    0.8000    0.0000 H   0  0  0  0  0  0  0  0  0  0  0  0
    5.5425    3.2000    0.0000 H   0  0  0  0  0  0  0  0  0  0  0  0
  1  2  1  0  0  0  0
  2  3  1  0  0  0  0
  3  4  1  0  0  0  0
  4  5  1  0  0  0  0
  5  6  4  0  0  0  0
  6  7  1  0  0  0  0
  6  8  4  0  0  0  0
  8  9  1  0  0  0  0
  8 10  4  0  0  0  0
 10 11  1  0  0  0  0
 10 12  4  0  0  0  0
 12 13  4  0  0  0  0
 13  5  4  0  0  0  0
 13 14  1  0  0  0  0
  4 15  2  0  0  0  0
  2 16  1  0  0  0  0
  2 17  1  0  0  0  0
  1 18  1  0  0  0  0
  1 19  1  0  0  0  0
  1 20  1  0  0  0  0
M  END
> <CAS>
614-18-6

> <NAME>
NICOTINIC ACID, ETHYL ESTER

> <preferred_name>
Ethyl nicotinate

> <iupac>
ethyl pyridine-3-carboxylate

> <SMILES>
CCOC(=O)c1ccc[n]c1

> <Canonical_QSARr>
CCOC(=O)c1ccc[n]c1

> <InChI_Code_QSARr>
InChI=1S/C8H9NO2/c1-2-11-8(10)7-4-3-5-9-6-7/h3-6H,2H2,1H3

> <InChI Key_QSARr>
XBLVHTDFJBKJLG-UHFFFAOYSA-N

> <Salt_Solvent>
?

> <WS Temperature>
25

> <WS Reference>
BEILSTEIN

> <dsstox_substance_id>
DTXSID9046526

> <LogMolar>
-0.4313

$$$$
614-80-2
  -INDIGO-01081615412D

 20 20  0  0  0  0  0  0  0  0999 V2000
    0.0000    2.7713    0.0000 O   0  0  0  0  0  0  0  0  0  0  0  0
   -0.8000    1.3856    0.0000 C   0  0  0  0  0  0  0  0  0  0  0  0
   -2.4001    1.3856    0.0000 C   0  0  0  0  0  0  0  0  0  0  0  0
   -3.2000    2.7713    0.0000 H   0  0  0  0  0  0  0  0  0  0  0  0
   -3.2000    0.0000    0.0000 C   0  0  0  0  0  0  0  0  0  0  0  0
   -4.8000    0.0000    0.0000 H   0  0  0  0  0  0  0  0  0  0  0  0
   -2.4001   -1.3856    0.0000 C   0  0  0  0  0  0  0  0  0  0  0  0
   -3.2000   -2.7713    0.0000 H   0  0  0  0  0  0  0  0  0  0  0  0
   -0.8000   -1.3856    0.0000 C   0  0  0  0  0  0  0  0  0  0  0  0
    0.0000   -2.7713    0.0000 H   0  0  0  0  0  0  0  0  0  0  0  0
    0.0000    0.0000    0.0000 C   0  0  0  0  0  0  0  0  0  0  0  0
    1.6000    0.0000    0.0000 N   0  0  0  0  0  0  0  0  0  0  0  0
    2.3999   -1.3856    0.0000 C   0  0  0  0  0  0  0  0  0  0  0  0
    4.0001   -1.3856    0.0000 C   0  0  0  0  0  0  0  0  0  0  0  0
    5.6000   -1.3856    0.0000 H   0  0  0  0  0  0  0  0  0  0  0  0
    4.8000   -2.7713    0.0000 H   0  0  0  0  0  0  0  0  0  0  0  0
    4.8000    0.0000    0.0000 H   0  0  0  0  0  0  0  0  0  0  0  0
    1.6000   -2.7713    0.0000 O   0  0  0  0  0  0  0  0  0  0  0  0
    2.3999    1.3856    0.0000 H   0  0  0  0  0  0  0  0  0  0  0  0
   -0.8000    4.1569    0.0000 H   0  0  0  0  0  0  0  0  0  0  0  0
  1  2  1  0  0  0  0
  2  3  4  0  0  0  0
  3  4  1  0  0  0  0
  3  5  4  0  0  0  0
  5  6  1  0  0  0  0
  5  7  4  0  0  0  0
  7  8  1  0  0  0  0
  7  9  4  0  0  0  0
  9 10  1  0  0  0  0
  9 11  4  0  0  0  0
 11  2  4  0  0  0  0
 11 12  1  0  0  0  0
 12 13  1  0  0  0  0
 13 14  1  0  0  0  0
 14 15  1  0  0  0  0
 14 16  1  0  0  0  0
 14 17  1  0  0  0  0
 13 18  2  0  0  0  0
 12 19  1  0  0  0  0
  1 20  1  0  0  0  0
M  END
> <CAS>
614-80-2

> <NAME>
O-HYDROXYACETANILIDE

> <preferred_name>
2-Acetamidophenol

> <iupac>
N-(2-hydroxyphenyl)acetamide

> <SMILES>
CC(=O)Nc1ccccc1O

> <Canonical_QSARr>
CC(=O)Nc1ccccc1O

> <InChI_Code_QSARr>
InChI=1S/C8H9NO2/c1-6(10)9-7-4-2-3-5-8(7)11/h2-5,11H,1H3,(H,9,10)

> <InChI Key_QSARr>
ADVGKWPZRIDURE-UHFFFAOYSA-N

> <Salt_Solvent>
?

> <WS Temperature>
25

> <WS Reference>
CHEMICALS INSPECTION AND TESTING INSTITU (1992)

> <dsstox_substance_id>
DTXSID8022082

> <LogMolar>
-2.235

$$$$
615-41-8
  -INDIGO-01081615412D

 12 12  0  0  0  0  0  0  0  0999 V2000
    0.0000   -0.0000    0.0000 C   0  0  0  0  0  0  0  0  0  0  0  0
   -0.8000    1.3856    0.0000 Cl  0  0  0  0  0  0  0  0  0  0  0  0
   -0.8000   -1.3857    0.0000 C   0  0  0  0  0  0  0  0  0  0  0  0
   -2.4000   -1.3857    0.0000 H   0  0  0  0  0  0  0  0  0  0  0  0
    0.0000   -2.7713    0.0000 C   0  0  0  0  0  0  0  0  0  0  0  0
   -0.8000   -4.1569    0.0000 H   0  0  0  0  0  0  0  0  0  0  0  0
    1.6000   -2.7713    0.0000 C   0  0  0  0  0  0  0  0  0  0  0  0
    2.4000   -4.1569    0.0000 H   0  0  0  0  0  0  0  0  0  0  0  0
    2.4000   -1.3857    0.0000 C   0  0  0  0  0  0  0  0  0  0  0  0
    4.0000   -1.3857    0.0000 H   0  0  0  0  0  0  0  0  0  0  0  0
    1.6000   -0.0000    0.0000 C   0  0  0  0  0  0  0  0  0  0  0  0
    2.4000    1.3856    0.0000 I   0  0  0  0  0  0  0  0  0  0  0  0
  1  2  1  0  0  0  0
  1  3  4  0  0  0  0
  3  4  1  0  0  0  0
  3  5  4  0  0  0  0
  5  6  1  0  0  0  0
  5  7  4  0  0  0  0
  7  8  1  0  0  0  0
  7  9  4  0  0  0  0
  9 10  1  0  0  0  0
  9 11  4  0  0  0  0
 11  1  4  0  0  0  0
 11 12  1  0  0  0  0
M  END
> <CAS>
615-41-8

> <NAME>
2-CHLOROIODOBENZENE

> <preferred_name>
Benzene, 1-chloro-2-iodo-

> <iupac>
1-Chloro-2-iodobenzene

> <SMILES>
Clc1ccccc1I

> <Canonical_QSARr>
Clc1ccccc1I

> <InChI_Code_QSARr>
InChI=1S/C6H4ClI/c7-5-3-1-2-4-6(5)8/h1-4H

> <InChI Key_QSARr>
MPEOPBCQHNWNFB-UHFFFAOYSA-N

> <Salt_Solvent>
?

> <WS Temperature>
25

> <WS Reference>
SUZUKI,T (1991)

> <dsstox_substance_id>
DTXSID5060647

> <LogMolar>
-3.536

$$$$
616-20-6
  -INDIGO-01081615412D

 17 16  0  0  0  0  0  0  0  0999 V2000
    0.0001    0.0000    0.0000 C   0  0  0  0  0  0  0  0  0  0  0  0
    0.0001    1.6000    0.0000 Cl  0  0  0  0  0  0  0  0  0  0  0  0
   -1.6000    0.0000    0.0000 C   0  0  0  0  0  0  0  0  0  0  0  0
   -3.1999   -0.0000    0.0000 C   0  0  0  0  0  0  0  0  0  0  0  0
   -4.8000   -0.0000    0.0000 H   0  0  0  0  0  0  0  0  0  0  0  0
   -4.0000   -1.3856    0.0000 H   0  0  0  0  0  0  0  0  0  0  0  0
   -4.0000    1.3856    0.0000 H   0  0  0  0  0  0  0  0  0  0  0  0
   -1.6000   -1.6000    0.0000 H   0  0  0  0  0  0  0  0  0  0  0  0
   -1.6000    1.6000    0.0000 H   0  0  0  0  0  0  0  0  0  0  0  0
    1.6000    0.0000    0.0000 C   0  0  0  0  0  0  0  0  0  0  0  0
    3.2001    0.0000    0.0000 C   0  0  0  0  0  0  0  0  0  0  0  0
    4.8000    0.0000    0.0000 H   0  0  0  0  0  0  0  0  0  0  0  0
    4.0000   -1.3856    0.0000 H   0  0  0  0  0  0  0  0  0  0  0  0
    4.0000    1.3856    0.0000 H   0  0  0  0  0  0  0  0  0  0  0  0
    1.6000   -1.6000    0.0000 H   0  0  0  0  0  0  0  0  0  0  0  0
    1.6000    1.6000    0.0000 H   0  0  0  0  0  0  0  0  0  0  0  0
    0.0001   -1.6000    0.0000 H   0  0  0  0  0  0  0  0  0  0  0  0
  1  2  1  0  0  0  0
  1  3  1  0  0  0  0
  3  4  1  0  0  0  0
  4  5  1  0  0  0  0
  4  6  1  0  0  0  0
  4  7  1  0  0  0  0
  3  8  1  0  0  0  0
  3  9  1  0  0  0  0
  1 10  1  0  0  0  0
 10 11  1  0  0  0  0
 11 12  1  0  0  0  0
 11 13  1  0  0  0  0
 11 14  1  0  0  0  0
 10 15  1  0  0  0  0
 10 16  1  0  0  0  0
  1 17  1  0  0  0  0
M  END
> <CAS>
616-20-6

> <NAME>
3-CHLOROPENTANE

> <preferred_name>
Pentane, 3-chloro-

> <iupac>
3-CHLOROPENTANE

> <SMILES>
CCC(Cl)CC

> <Canonical_QSARr>
CCC(Cl)CC

> <InChI_Code_QSARr>
InChI=1S/C5H11Cl/c1-3-5(6)4-2/h5H,3-4H2,1-2H3

> <InChI Key_QSARr>
CXQSCYIVCSCSES-UHFFFAOYSA-N

> <Salt_Solvent>
?

> <WS Temperature>
25

> <WS Reference>
HINE,J & MOOKERJEE,PK (1975)

> <dsstox_substance_id>
DTXSID3060661

> <LogMolar>
-2.6307

$$$$
616-45-5
  -INDIGO-01081615412D

 13 13  0  0  0  0  0  0  0  0999 V2000
   -0.8000    2.4621    0.0000 N   0  0  0  0  0  0  0  0  0  0  0  0
   -1.2944    0.9404    0.0000 C   0  0  0  0  0  0  0  0  0  0  0  0
   -2.7561    1.5913    0.0000 H   0  0  0  0  0  0  0  0  0  0  0  0
   -2.0944   -0.4452    0.0000 H   0  0  0  0  0  0  0  0  0  0  0  0
    0.0000   -0.0000    0.0000 C   0  0  0  0  0  0  0  0  0  0  0  0
   -1.0706   -1.1890    0.0000 H   0  0  0  0  0  0  0  0  0  0  0  0
    1.0706   -1.1890    0.0000 H   0  0  0  0  0  0  0  0  0  0  0  0
    1.2944    0.9404    0.0000 C   0  0  0  0  0  0  0  0  0  0  0  0
    2.0944   -0.4452    0.0000 H   0  0  0  0  0  0  0  0  0  0  0  0
    2.7561    1.5913    0.0000 H   0  0  0  0  0  0  0  0  0  0  0  0
    0.8000    2.4621    0.0000 C   0  0  0  0  0  0  0  0  0  0  0  0
    1.7405    3.7566    0.0000 O   0  0  0  0  0  0  0  0  0  0  0  0
   -1.7405    3.7566    0.0000 H   0  0  0  0  0  0  0  0  0  0  0  0
  1  2  1  0  0  0  0
  2  3  1  0  0  0  0
  2  4  1  0  0  0  0
  2  5  1  0  0  0  0
  5  6  1  0  0  0  0
  5  7  1  0  0  0  0
  5  8  1  0  0  0  0
  8  9  1  0  0  0  0
  8 10  1  0  0  0  0
  8 11  1  0  0  0  0
 11  1  1  0  0  0  0
 11 12  2  0  0  0  0
  1 13  1  0  0  0  0
M  END
> <CAS>
616-45-5

> <NAME>
PYRROLIDONE

> <preferred_name>
2-Pyrrolidinone

> <iupac>
pyrrolidin-2-one

> <SMILES>
O=C1CCCN1

> <Canonical_QSARr>
O=C1CCCN1

> <InChI_Code_QSARr>
InChI=1S/C4H7NO/c6-4-2-1-3-5-4/h1-3H2,(H,5,6)

> <InChI Key_QSARr>
HNJBEVLQSNELDL-UHFFFAOYSA-N

> <Salt_Solvent>
?

> <WS Temperature>
20

> <WS Reference>
YALKOWSKY,SH & DANNENFELSER,RM (1992)

> <dsstox_substance_id>
DTXSID8027246

> <LogMolar>
1.07

$$$$
616-76-2
  -INDIGO-01081615412D

 18 18  0  0  0  0  0  0  0  0999 V2000
    1.3856    2.4000    0.0000 O   0  0  0  0  0  0  0  0  0  0  0  0
    0.0000    1.6000    0.0000 C   0  0  0  0  0  0  0  0  0  0  0  0
   -1.3857    2.4000    0.0000 C   0  0  0  0  0  0  0  0  0  0  0  0
   -1.3857    4.0000    0.0000 H   0  0  0  0  0  0  0  0  0  0  0  0
   -2.7713    1.6000    0.0000 C   0  0  0  0  0  0  0  0  0  0  0  0
   -4.1570    2.4000    0.0000 H   0  0  0  0  0  0  0  0  0  0  0  0
   -2.7713    0.0000    0.0000 C   0  0  0  0  0  0  0  0  0  0  0  0
   -4.1570   -0.8000    0.0000 C   0  0  0  0  0  0  0  0  0  0  0  0
   -5.5426    0.0000    0.0000 O   0  0  0  0  0  0  0  0  0  0  0  0
   -4.1569   -2.4000    0.0000 H   0  0  0  0  0  0  0  0  0  0  0  0
   -1.3857   -0.8000    0.0000 C   0  0  0  0  0  0  0  0  0  0  0  0
   -1.3857   -2.4000    0.0000 H   0  0  0  0  0  0  0  0  0  0  0  0
    0.0000    0.0000    0.0000 C   0  0  0  0  0  0  0  0  0  0  0  0
    1.3856   -0.8000    0.0000 C   0  0  0  0  0  0  0  0  0  0  0  0
    2.7713    0.0000    0.0000 O   0  0  0  0  0  0  0  0  0  0  0  0
    1.3857   -2.4000    0.0000 O   0  0  0  0  0  0  0  0  0  0  0  0
    2.7713   -3.2000    0.0000 H   0  0  0  0  0  0  0  0  0  0  0  0
    1.3856    4.0000    0.0000 H   0  0  0  0  0  0  0  0  0  0  0  0
  1  2  1  0  0  0  0
  2  3  4  0  0  0  0
  3  4  1  0  0  0  0
  3  5  4  0  0  0  0
  5  6  1  0  0  0  0
  5  7  4  0  0  0  0
  7  8  1  0  0  0  0
  8  9  2  0  0  0  0
  8 10  1  0  0  0  0
  7 11  4  0  0  0  0
 11 12  1  0  0  0  0
 11 13  4  0  0  0  0
 13  2  4  0  0  0  0
 13 14  1  0  0  0  0
 14 15  2  0  0  0  0
 14 16  1  0  0  0  0
 16 17  1  0  0  0  0
  1 18  1  0  0  0  0
M  END
> <CAS>
616-76-2

> <NAME>
Benzoic acid, 5-formyl-2-hydroxy-

> <preferred_name>
5-Formylsalicylic acid

> <iupac>
5-formyl-2-hydroxybenzoic acid

> <SMILES>
OC(=O)c1cc(ccc1O)C=O

> <Canonical_QSARr>
OC(=O)c1cc(ccc1O)C=O

> <InChI_Code_QSARr>
InChI=1S/C8H6O4/c9-4-5-1-2-7(10)6(3-5)8(11)12/h1-4,10H,(H,11,12)

> <InChI Key_QSARr>
UTCFOFWMEPQCSR-UHFFFAOYSA-N

> <Salt_Solvent>
?

> <WS Temperature>
25

> <WS Reference>
BEILSTEIN

> <dsstox_substance_id>
DTXSID60210608

> <LogMolar>
-2.6354

$$$$
617-84-5
  -INDIGO-01081615412D

 18 17  0  0  0  0  0  0  0  0999 V2000
    2.7713    1.6000    0.0000 C   0  0  0  0  0  0  0  0  0  0  0  0
    1.3856    0.8000    0.0000 C   0  0  0  0  0  0  0  0  0  0  0  0
    0.0001   -0.0000    0.0000 N   0  0  0  0  0  0  0  0  0  0  0  0
    0.0001   -1.6000    0.0000 C   0  0  0  0  0  0  0  0  0  0  0  0
   -1.3856   -2.4000    0.0000 O   0  0  0  0  0  0  0  0  0  0  0  0
    1.3856   -2.4000    0.0000 H   0  0  0  0  0  0  0  0  0  0  0  0
   -1.3856    0.8000    0.0000 C   0  0  0  0  0  0  0  0  0  0  0  0
   -2.7712    1.6000    0.0000 C   0  0  0  0  0  0  0  0  0  0  0  0
   -4.1569    2.4000    0.0000 H   0  0  0  0  0  0  0  0  0  0  0  0
   -4.1569    0.8000    0.0000 H   0  0  0  0  0  0  0  0  0  0  0  0
   -2.7712    3.2000    0.0000 H   0  0  0  0  0  0  0  0  0  0  0  0
   -2.1856   -0.5856    0.0000 H   0  0  0  0  0  0  0  0  0  0  0  0
   -0.5857    2.1856    0.0000 H   0  0  0  0  0  0  0  0  0  0  0  0
    2.1856   -0.5856    0.0000 H   0  0  0  0  0  0  0  0  0  0  0  0
    0.5857    2.1856    0.0000 H   0  0  0  0  0  0  0  0  0  0  0  0
    4.1569    2.4000    0.0000 H   0  0  0  0  0  0  0  0  0  0  0  0
    4.1569    0.8000    0.0000 H   0  0  0  0  0  0  0  0  0  0  0  0
    2.7713    3.2000    0.0000 H   0  0  0  0  0  0  0  0  0  0  0  0
  1  2  1  0  0  0  0
  2  3  1  0  0  0  0
  3  4  1  0  0  0  0
  4  5  2  0  0  0  0
  4  6  1  0  0  0  0
  3  7  1  0  0  0  0
  7  8  1  0  0  0  0
  8  9  1  0  0  0  0
  8 10  1  0  0  0  0
  8 11  1  0  0  0  0
  7 12  1  0  0  0  0
  7 13  1  0  0  0  0
  2 14  1  0  0  0  0
  2 15  1  0  0  0  0
  1 16  1  0  0  0  0
  1 17  1  0  0  0  0
  1 18  1  0  0  0  0
M  END
> <CAS>
617-84-5

> <NAME>
N,N-DIETHYLFORMAMIDE

> <preferred_name>
Diethylformamide

> <iupac>
N,N-diethylformamide

> <SMILES>
CCN(CC)C=O

> <Canonical_QSARr>
CCN(CC)C=O

> <InChI_Code_QSARr>
InChI=1S/C5H11NO/c1-3-6(4-2)5-7/h5H,3-4H2,1-2H3

> <InChI Key_QSARr>
SUAKHGWARZSWIH-UHFFFAOYSA-N

> <Salt_Solvent>
?

> <WS Temperature>
20

> <WS Reference>
YALKOWSKY,SH & DANNENFELSER,RM (1992)

> <dsstox_substance_id>
DTXSID3020463

> <LogMolar>
0.995

$$$$
618-30-4
  -INDIGO-01081615412D

 12 12  0  0  0  0  0  0  0  0999 V2000
   -4.0363    0.9214    0.0000 Cl  0  0  0  0  0  0  0  0  0  0  0  0
   -2.5747    0.2706    0.0000 C   0  0  0  0  0  0  0  0  0  0  0  0
   -2.2420   -1.2944    0.0000 C   0  0  0  0  0  0  0  0  0  0  0  0
   -3.3126   -2.4834    0.0000 H   0  0  0  0  0  0  0  0  0  0  0  0
   -0.6508   -1.4617    0.0000 C   0  0  0  0  0  0  0  0  0  0  0  0
    0.1493   -2.8473    0.0000 H   0  0  0  0  0  0  0  0  0  0  0  0
   -0.0000   -0.0000    0.0000 C   0  0  0  0  0  0  0  0  0  0  0  0
    1.5650    0.3327    0.0000 C   0  0  0  0  0  0  0  0  0  0  0  0
    2.6357   -0.8564    0.0000 O   0  0  0  0  0  0  0  0  0  0  0  0
    2.0595    1.8544    0.0000 O   0  0  0  0  0  0  0  0  0  0  0  0
    3.6245    2.1870    0.0000 H   0  0  0  0  0  0  0  0  0  0  0  0
   -1.1891    1.0706    0.0000 O   0  0  0  0  0  0  0  0  0  0  0  0
  1  2  1  0  0  0  0
  2  3  4  0  0  0  0
  3  4  1  0  0  0  0
  3  5  4  0  0  0  0
  5  6  1  0  0  0  0
  5  7  4  0  0  0  0
  7  8  1  0  0  0  0
  8  9  2  0  0  0  0
  8 10  1  0  0  0  0
 10 11  1  0  0  0  0
  7 12  4  0  0  0  0
 12  2  4  0  0  0  0
M  END
> <CAS>
618-30-4

> <NAME>
2-Furancarboxylic acid, 5-chloro-

> <preferred_name>
5-chlorofuran-2-carboxylic acid

> <iupac>
C5H3ClO3

> <SMILES>
OC(=O)c1ccc(Cl)o1

> <Canonical_QSARr>
OC(=O)c1ccc(Cl)o1

> <InChI_Code_QSARr>
InChI=1S/C5H3ClO3/c6-4-2-1-3(9-4)5(7)8/h1-2H,(H,7,8)

> <InChI Key_QSARr>
NNTBDUTXMIMRKK-UHFFFAOYSA-N

> <Salt_Solvent>
?

> <WS Temperature>
20

> <WS Reference>
BEILSTEIN

> <dsstox_substance_id>
DTXSID10284096

> <LogMolar>
-1.7188

$$$$
619-58-9
  -INDIGO-01081615412D

 15 15  0  0  0  0  0  0  0  0999 V2000
    1.6000    0.0000    0.0000 C   0  0  0  0  0  0  0  0  0  0  0  0
    2.4001   -1.3856    0.0000 O   0  0  0  0  0  0  0  0  0  0  0  0
    4.0000   -1.3856    0.0000 H   0  0  0  0  0  0  0  0  0  0  0  0
   -0.0000   -0.0000    0.0000 C   0  0  0  0  0  0  0  0  0  0  0  0
   -0.8000    1.3856    0.0000 C   0  0  0  0  0  0  0  0  0  0  0  0
   -0.0000    2.7713    0.0000 H   0  0  0  0  0  0  0  0  0  0  0  0
   -2.4000    1.3856    0.0000 C   0  0  0  0  0  0  0  0  0  0  0  0
   -3.2001    2.7713    0.0000 H   0  0  0  0  0  0  0  0  0  0  0  0
   -3.2001   -0.0000    0.0000 C   0  0  0  0  0  0  0  0  0  0  0  0
   -4.8000   -0.0000    0.0000 I   0  0  0  0  0  0  0  0  0  0  0  0
   -2.4000   -1.3856    0.0000 C   0  0  0  0  0  0  0  0  0  0  0  0
   -3.2001   -2.7713    0.0000 H   0  0  0  0  0  0  0  0  0  0  0  0
   -0.8000   -1.3856    0.0000 C   0  0  0  0  0  0  0  0  0  0  0  0
   -0.0000   -2.7713    0.0000 H   0  0  0  0  0  0  0  0  0  0  0  0
    2.4001    1.3856    0.0000 O   0  0  0  0  0  0  0  0  0  0  0  0
  1  2  1  0  0  0  0
  2  3  1  0  0  0  0
  1  4  1  0  0  0  0
  4  5  4  0  0  0  0
  5  6  1  0  0  0  0
  5  7  4  0  0  0  0
  7  8  1  0  0  0  0
  7  9  4  0  0  0  0
  9 10  1  0  0  0  0
  9 11  4  0  0  0  0
 11 12  1  0  0  0  0
 11 13  4  0  0  0  0
 13  4  4  0  0  0  0
 13 14  1  0  0  0  0
  1 15  2  0  0  0  0
M  END
> <CAS>
619-58-9

> <NAME>
4-IODOBENZOIC ACID

> <preferred_name>


> <iupac>


> <SMILES>
OC(=O)c1ccc(I)cc1

> <Canonical_QSARr>
OC(=O)c1ccc(I)cc1

> <InChI_Code_QSARr>
InChI=1S/C7H5IO2/c8-6-3-1-5(2-4-6)7(9)10/h1-4H,(H,9,10)

> <InChI Key_QSARr>
GHICCUXQJBDNRN-UHFFFAOYSA-N

> <Salt_Solvent>
?

> <WS Temperature>
25

> <WS Reference>
STEPHEN,H & STEPHEN,T (1963)

> <dsstox_substance_id>


> <LogMolar>
-3.9631

$$$$
619-84-1
  -INDIGO-01081615412D

 23 23  0  0  0  0  0  0  0  0999 V2000
    2.4000    1.3856    0.0000 C   0  0  0  0  0  0  0  0  0  0  0  0
    1.6000    0.0000    0.0000 N   0  0  0  0  0  0  0  0  0  0  0  0
    0.0001   -0.0000    0.0000 C   0  0  0  0  0  0  0  0  0  0  0  0
   -0.7999    1.3856    0.0000 C   0  0  0  0  0  0  0  0  0  0  0  0
    0.0001    2.7713    0.0000 H   0  0  0  0  0  0  0  0  0  0  0  0
   -2.4001    1.3856    0.0000 C   0  0  0  0  0  0  0  0  0  0  0  0
   -3.2001    2.7713    0.0000 H   0  0  0  0  0  0  0  0  0  0  0  0
   -3.2001   -0.0000    0.0000 C   0  0  0  0  0  0  0  0  0  0  0  0
   -4.8000   -0.0000    0.0000 C   0  0  0  0  0  0  0  0  0  0  0  0
   -5.6000    1.3856    0.0000 O   0  0  0  0  0  0  0  0  0  0  0  0
   -7.2000    1.3856    0.0000 H   0  0  0  0  0  0  0  0  0  0  0  0
   -5.6000   -1.3856    0.0000 O   0  0  0  0  0  0  0  0  0  0  0  0
   -2.4001   -1.3856    0.0000 C   0  0  0  0  0  0  0  0  0  0  0  0
   -3.2001   -2.7713    0.0000 H   0  0  0  0  0  0  0  0  0  0  0  0
   -0.7999   -1.3856    0.0000 C   0  0  0  0  0  0  0  0  0  0  0  0
    0.0001   -2.7713    0.0000 H   0  0  0  0  0  0  0  0  0  0  0  0
    2.4000   -1.3856    0.0000 C   0  0  0  0  0  0  0  0  0  0  0  0
    3.2000   -2.7713    0.0000 H   0  0  0  0  0  0  0  0  0  0  0  0
    4.0000   -1.3856    0.0000 H   0  0  0  0  0  0  0  0  0  0  0  0
    1.6000   -2.7713    0.0000 H   0  0  0  0  0  0  0  0  0  0  0  0
    3.2000    2.7713    0.0000 H   0  0  0  0  0  0  0  0  0  0  0  0
    4.0000    1.3856    0.0000 H   0  0  0  0  0  0  0  0  0  0  0  0
    1.6000    2.7713    0.0000 H   0  0  0  0  0  0  0  0  0  0  0  0
  1  2  1  0  0  0  0
  2  3  1  0  0  0  0
  3  4  4  0  0  0  0
  4  5  1  0  0  0  0
  4  6  4  0  0  0  0
  6  7  1  0  0  0  0
  6  8  4  0  0  0  0
  8  9  1  0  0  0  0
  9 10  1  0  0  0  0
 10 11  1  0  0  0  0
  9 12  2  0  0  0  0
  8 13  4  0  0  0  0
 13 14  1  0  0  0  0
 13 15  4  0  0  0  0
 15  3  4  0  0  0  0
 15 16  1  0  0  0  0
  2 17  1  0  0  0  0
 17 18  1  0  0  0  0
 17 19  1  0  0  0  0
 17 20  1  0  0  0  0
  1 21  1  0  0  0  0
  1 22  1  0  0  0  0
  1 23  1  0  0  0  0
M  END
> <CAS>
619-84-1

> <NAME>
4-DIMETHYLAMINO BENZOIC ACID

> <preferred_name>
Benzoic acid, 4-(dimethylamino)-

> <iupac>
4-DIMETHYLAMINOBENZOIC ACID

> <SMILES>
CN(C)c1ccc(cc1)C(O)=O

> <Canonical_QSARr>
CN(C)c1ccc(cc1)C(O)=O

> <InChI_Code_QSARr>
InChI=1S/C9H11NO2/c1-10(2)8-5-3-7(4-6-8)9(11)12/h3-6H,1-2H3,(H,11,12)

> <InChI Key_QSARr>
YDIYEOMDOWUDTJ-UHFFFAOYSA-N

> <Salt_Solvent>
?

> <WS Temperature>


> <WS Reference>
YALKOWSKY,SH & DANNENFELSER,RM (1992)

> <dsstox_substance_id>
DTXSID7060708

> <LogMolar>
-3.3979

$$$$
621-64-7
  -INDIGO-01081615412D

 23 22  0  0  0  0  0  0  0  0999 V2000
   -2.7712    3.2000    0.0000 O   0  0  0  0  0  0  0  0  0  0  0  0
   -1.3857    2.4000    0.0000 N   0  0  0  0  0  0  0  0  0  0  0  0
   -1.3857    0.8000    0.0000 N   0  0  0  0  0  0  0  0  0  0  0  0
   -2.7712    0.0000    0.0000 C   0  0  0  0  0  0  0  0  0  0  0  0
   -4.1569   -0.8000    0.0000 C   0  0  0  0  0  0  0  0  0  0  0  0
   -5.5425   -1.6000    0.0000 C   0  0  0  0  0  0  0  0  0  0  0  0
   -6.9282   -2.4000    0.0000 H   0  0  0  0  0  0  0  0  0  0  0  0
   -6.9282   -0.8000    0.0000 H   0  0  0  0  0  0  0  0  0  0  0  0
   -5.5425   -3.2000    0.0000 H   0  0  0  0  0  0  0  0  0  0  0  0
   -4.9570    0.5856    0.0000 H   0  0  0  0  0  0  0  0  0  0  0  0
   -3.3570   -2.1856    0.0000 H   0  0  0  0  0  0  0  0  0  0  0  0
   -3.5713    1.3856    0.0000 H   0  0  0  0  0  0  0  0  0  0  0  0
   -1.9713   -1.3856    0.0000 H   0  0  0  0  0  0  0  0  0  0  0  0
   -0.0001    0.0000    0.0000 C   0  0  0  0  0  0  0  0  0  0  0  0
    1.3856   -0.8000    0.0000 C   0  0  0  0  0  0  0  0  0  0  0  0
    2.7713   -1.6000    0.0000 C   0  0  0  0  0  0  0  0  0  0  0  0
    4.1569   -2.4000    0.0000 H   0  0  0  0  0  0  0  0  0  0  0  0
    4.1569   -0.8000    0.0000 H   0  0  0  0  0  0  0  0  0  0  0  0
    2.7713   -3.2000    0.0000 H   0  0  0  0  0  0  0  0  0  0  0  0
    0.5857   -2.1856    0.0000 H   0  0  0  0  0  0  0  0  0  0  0  0
    2.1857    0.5856    0.0000 H   0  0  0  0  0  0  0  0  0  0  0  0
    0.8000    1.3856    0.0000 H   0  0  0  0  0  0  0  0  0  0  0  0
   -0.8000   -1.3856    0.0000 H   0  0  0  0  0  0  0  0  0  0  0  0
  1  2  2  0  0  0  0
  2  3  1  0  0  0  0
  3  4  1  0  0  0  0
  4  5  1  0  0  0  0
  5  6  1  0  0  0  0
  6  7  1  0  0  0  0
  6  8  1  0  0  0  0
  6  9  1  0  0  0  0
  5 10  1  0  0  0  0
  5 11  1  0  0  0  0
  4 12  1  0  0  0  0
  4 13  1  0  0  0  0
  3 14  1  0  0  0  0
 14 15  1  0  0  0  0
 15 16  1  0  0  0  0
 16 17  1  0  0  0  0
 16 18  1  0  0  0  0
 16 19  1  0  0  0  0
 15 20  1  0  0  0  0
 15 21  1  0  0  0  0
 14 22  1  0  0  0  0
 14 23  1  0  0  0  0
M  END
> <CAS>
621-64-7

> <NAME>
N-NITROSODIPROPYLAMINE

> <preferred_name>
N-Nitrosodipropylamine

> <iupac>
N-nitroso-N-propylpropan-1-amine

> <SMILES>
CCCN(CCC)N=O

> <Canonical_QSARr>
CCCN(CCC)N=O

> <InChI_Code_QSARr>
InChI=1S/C6H14N2O/c1-3-5-8(7-9)6-4-2/h3-6H2,1-2H3

> <InChI Key_QSARr>
YLKFDHTUAUWZPQ-UHFFFAOYSA-N

> <Salt_Solvent>
?

> <WS Temperature>
24

> <WS Reference>
MIRVISH,SS ET AL. (1976)

> <dsstox_substance_id>
DTXSID6021032

> <LogMolar>
-1.0006

$$$$
622-59-3
  -INDIGO-01081615412D

 17 17  0  0  0  0  0  0  0  0999 V2000
    6.4000   -2.7713    0.0000 S   0  0  0  0  0  0  0  0  0  0  0  0
    5.6000   -1.3856    0.0000 C   0  0  0  0  0  0  0  0  0  0  0  0
    4.7999    0.0000    0.0000 N   0  0  0  0  0  0  0  0  0  0  0  0
    3.2000   -0.0000    0.0000 C   0  0  0  0  0  0  0  0  0  0  0  0
    2.4000    1.3856    0.0000 C   0  0  0  0  0  0  0  0  0  0  0  0
    3.2000    2.7713    0.0000 H   0  0  0  0  0  0  0  0  0  0  0  0
    0.8000    1.3856    0.0000 C   0  0  0  0  0  0  0  0  0  0  0  0
    0.0000    2.7713    0.0000 H   0  0  0  0  0  0  0  0  0  0  0  0
    0.0000   -0.0000    0.0000 C   0  0  0  0  0  0  0  0  0  0  0  0
   -1.6001   -0.0000    0.0000 C   0  0  0  0  0  0  0  0  0  0  0  0
   -3.2000   -0.0000    0.0000 H   0  0  0  0  0  0  0  0  0  0  0  0
   -2.4000    1.3856    0.0000 H   0  0  0  0  0  0  0  0  0  0  0  0
   -2.4000   -1.3856    0.0000 H   0  0  0  0  0  0  0  0  0  0  0  0
    0.8000   -1.3856    0.0000 C   0  0  0  0  0  0  0  0  0  0  0  0
    0.0000   -2.7713    0.0000 H   0  0  0  0  0  0  0  0  0  0  0  0
    2.4000   -1.3856    0.0000 C   0  0  0  0  0  0  0  0  0  0  0  0
    3.2000   -2.7713    0.0000 H   0  0  0  0  0  0  0  0  0  0  0  0
  1  2  2  0  0  0  0
  2  3  2  0  0  0  0
  3  4  1  0  0  0  0
  4  5  4  0  0  0  0
  5  6  1  0  0  0  0
  5  7  4  0  0  0  0
  7  8  1  0  0  0  0
  7  9  4  0  0  0  0
  9 10  1  0  0  0  0
 10 11  1  0  0  0  0
 10 12  1  0  0  0  0
 10 13  1  0  0  0  0
  9 14  4  0  0  0  0
 14 15  1  0  0  0  0
 14 16  4  0  0  0  0
 16  4  4  0  0  0  0
 16 17  1  0  0  0  0
M  END
> <CAS>
622-59-3

> <NAME>
4-METHYLPHENYLISOTHIOCYANATE

> <preferred_name>
Isothiocyanic acid, 4-tolyl ester

> <iupac>
1-isothiocyanato-4-methylbenzene

> <SMILES>
Cc1ccc(cc1)N=C=S

> <Canonical_QSARr>
Cc1ccc(cc1)N=C=S

> <InChI_Code_QSARr>
InChI=1S/C8H7NS/c1-7-2-4-8(5-3-7)9-6-10/h2-5H,1H3

> <InChI Key_QSARr>
ABQKHKWXTUVKGF-UHFFFAOYSA-N

> <Salt_Solvent>
?

> <WS Temperature>
25

> <WS Reference>
YALKOWSKY,SH & DANNENFELSER,RM (1992)

> <dsstox_substance_id>
DTXSID50211240

> <LogMolar>
-4.7213

$$$$
623-05-2
  -INDIGO-01081615412D

 17 17  0  0  0  0  0  0  0  0999 V2000
    0.0000   -0.0000    0.0000 C   0  0  0  0  0  0  0  0  0  0  0  0
    1.6000    0.0000    0.0000 C   0  0  0  0  0  0  0  0  0  0  0  0
    3.2000    0.0000    0.0000 O   0  0  0  0  0  0  0  0  0  0  0  0
    4.0000   -1.3856    0.0000 H   0  0  0  0  0  0  0  0  0  0  0  0
    1.6000   -1.6000    0.0000 H   0  0  0  0  0  0  0  0  0  0  0  0
    1.6000    1.6000    0.0000 H   0  0  0  0  0  0  0  0  0  0  0  0
   -0.8001    1.3856    0.0000 C   0  0  0  0  0  0  0  0  0  0  0  0
    0.0000    2.7713    0.0000 H   0  0  0  0  0  0  0  0  0  0  0  0
   -2.4000    1.3856    0.0000 C   0  0  0  0  0  0  0  0  0  0  0  0
   -3.2000    2.7713    0.0000 H   0  0  0  0  0  0  0  0  0  0  0  0
   -3.2000   -0.0000    0.0000 C   0  0  0  0  0  0  0  0  0  0  0  0
   -4.8000   -0.0000    0.0000 O   0  0  0  0  0  0  0  0  0  0  0  0
   -5.6000    1.3856    0.0000 H   0  0  0  0  0  0  0  0  0  0  0  0
   -2.4000   -1.3856    0.0000 C   0  0  0  0  0  0  0  0  0  0  0  0
   -3.2000   -2.7713    0.0000 H   0  0  0  0  0  0  0  0  0  0  0  0
   -0.8001   -1.3856    0.0000 C   0  0  0  0  0  0  0  0  0  0  0  0
    0.0000   -2.7713    0.0000 H   0  0  0  0  0  0  0  0  0  0  0  0
  1  2  1  0  0  0  0
  2  3  1  0  0  0  0
  3  4  1  0  0  0  0
  2  5  1  0  0  0  0
  2  6  1  0  0  0  0
  1  7  4  0  0  0  0
  7  8  1  0  0  0  0
  7  9  4  0  0  0  0
  9 10  1  0  0  0  0
  9 11  4  0  0  0  0
 11 12  1  0  0  0  0
 12 13  1  0  0  0  0
 11 14  4  0  0  0  0
 14 15  1  0  0  0  0
 14 16  4  0  0  0  0
 16  1  4  0  0  0  0
 16 17  1  0  0  0  0
M  END
> <CAS>
623-05-2

> <NAME>
P-HYDROXYBENZYL ALCOHOL

> <preferred_name>
4-Hydroxybenzenemethanol

> <iupac>
4-(Hydroxymethyl)phenol

> <SMILES>
Oc1ccc(CO)cc1

> <Canonical_QSARr>
Oc1ccc(CO)cc1

> <InChI_Code_QSARr>
InChI=1S/C7H8O2/c8-5-6-1-3-7(9)4-2-6/h1-4,8-9H,5H2

> <InChI Key_QSARr>
BVJSUAQZOZWCKN-UHFFFAOYSA-N

> <Salt_Solvent>
?

> <WS Temperature>
20

> <WS Reference>
BEILSTEIN

> <dsstox_substance_id>
DTXSID8073920

> <LogMolar>
-1.2678

$$$$
623-37-0
  -INDIGO-01081615412D

 21 20  0  0  0  0  0  0  0  0999 V2000
   -0.0000    1.6000    0.0000 O   0  0  0  0  0  0  0  0  0  0  0  0
   -0.0000   -0.0000    0.0000 C   0  0  0  0  0  0  0  0  0  0  0  0
   -1.5756   -0.2778    0.0000 C   0  0  0  0  0  0  0  0  0  0  0  0
   -3.1514   -0.5556    0.0000 C   0  0  0  0  0  0  0  0  0  0  0  0
   -4.7271   -0.8335    0.0000 H   0  0  0  0  0  0  0  0  0  0  0  0
   -3.6987   -2.0592    0.0000 H   0  0  0  0  0  0  0  0  0  0  0  0
   -4.1798    0.6700    0.0000 H   0  0  0  0  0  0  0  0  0  0  0  0
   -1.2979   -1.8535    0.0000 H   0  0  0  0  0  0  0  0  0  0  0  0
   -1.8536    1.2979    0.0000 H   0  0  0  0  0  0  0  0  0  0  0  0
    1.6001   -0.0000    0.0000 C   0  0  0  0  0  0  0  0  0  0  0  0
    3.2000   -0.0000    0.0000 C   0  0  0  0  0  0  0  0  0  0  0  0
    4.8001   -0.0000    0.0000 C   0  0  0  0  0  0  0  0  0  0  0  0
    6.4000   -0.0000    0.0000 H   0  0  0  0  0  0  0  0  0  0  0  0
    5.6000   -1.3857    0.0000 H   0  0  0  0  0  0  0  0  0  0  0  0
    5.6000    1.3856    0.0000 H   0  0  0  0  0  0  0  0  0  0  0  0
    3.2000   -1.6000    0.0000 H   0  0  0  0  0  0  0  0  0  0  0  0
    3.2000    1.6000    0.0000 H   0  0  0  0  0  0  0  0  0  0  0  0
    1.6001   -1.6000    0.0000 H   0  0  0  0  0  0  0  0  0  0  0  0
    1.6001    1.6000    0.0000 H   0  0  0  0  0  0  0  0  0  0  0  0
   -0.0000   -1.6000    0.0000 H   0  0  0  0  0  0  0  0  0  0  0  0
   -1.2257    2.6285    0.0000 H   0  0  0  0  0  0  0  0  0  0  0  0
  1  2  1  0  0  0  0
  2  3  1  0  0  0  0
  3  4  1  0  0  0  0
  4  5  1  0  0  0  0
  4  6  1  0  0  0  0
  4  7  1  0  0  0  0
  3  8  1  0  0  0  0
  3  9  1  0  0  0  0
  2 10  1  0  0  0  0
 10 11  1  0  0  0  0
 11 12  1  0  0  0  0
 12 13  1  0  0  0  0
 12 14  1  0  0  0  0
 12 15  1  0  0  0  0
 11 16  1  0  0  0  0
 11 17  1  0  0  0  0
 10 18  1  0  0  0  0
 10 19  1  0  0  0  0
  2 20  1  0  0  0  0
  1 21  1  0  0  0  0
M  END
> <CAS>
623-37-0

> <NAME>
3-HEXANOL

> <preferred_name>
(3S)-hexan-3-ol

> <iupac>
C6H14O

> <SMILES>
CC[C@H](O)CCC

> <Canonical_QSARr>
CCC(O)CCC

> <InChI_Code_QSARr>
InChI=1S/C6H14O/c1-3-5-6(7)4-2/h6-7H,3-5H2,1-2H3

> <InChI Key_QSARr>
ZOCHHNOQQHDWHG-UHFFFAOYSA-N

> <Salt_Solvent>
?

> <WS Temperature>
25

> <WS Reference>
YALKOWSKY,SH & DANNENFELSER,RM (1992)

> <dsstox_substance_id>
DTXSID40348539

> <LogMolar>
-0.8025

$$$$
623-87-0
  -INDIGO-01081615412D

 18 17  0  0  0  0  0  0  0  0999 V2000
    1.6001    0.0000    0.0000 C   0  0  0  0  0  0  0  0  0  0  0  0
    3.2000    0.0000    0.0000 O   0  0  0  0  0  0  0  0  0  0  0  0
    4.0000   -1.3857    0.0000 N   0  0  0  0  0  0  0  0  0  0  0  0
    5.6000   -1.3857    0.0000 O   0  0  0  0  0  0  0  0  0  0  0  0
    3.2000   -2.7713    0.0000 O   0  0  0  0  0  0  0  0  0  0  0  0
    0.0001    0.0000    0.0000 C   0  0  0  0  0  0  0  0  0  0  0  0
    0.2778    1.5757    0.0000 O   0  0  0  0  0  0  0  0  0  0  0  0
   -0.7507    2.8014    0.0000 H   0  0  0  0  0  0  0  0  0  0  0  0
   -1.6001    0.0000    0.0000 C   0  0  0  0  0  0  0  0  0  0  0  0
   -3.2000    0.0000    0.0000 O   0  0  0  0  0  0  0  0  0  0  0  0
   -4.0000   -1.3857    0.0000 N   0  0  0  0  0  0  0  0  0  0  0  0
   -5.6000   -1.3857    0.0000 O   0  0  0  0  0  0  0  0  0  0  0  0
   -3.2000   -2.7713    0.0000 O   0  0  0  0  0  0  0  0  0  0  0  0
   -1.6001   -1.6000    0.0000 H   0  0  0  0  0  0  0  0  0  0  0  0
   -1.6001    1.6000    0.0000 H   0  0  0  0  0  0  0  0  0  0  0  0
    0.0001   -1.6000    0.0000 H   0  0  0  0  0  0  0  0  0  0  0  0
    1.6001   -1.6000    0.0000 H   0  0  0  0  0  0  0  0  0  0  0  0
    1.6001    1.6000    0.0000 H   0  0  0  0  0  0  0  0  0  0  0  0
  1  2  1  0  0  0  0
  2  3  1  0  0  0  0
  3  4  2  0  0  0  0
  3  5  1  0  0  0  0
  1  6  1  0  0  0  0
  6  7  1  0  0  0  0
  7  8  1  0  0  0  0
  6  9  1  0  0  0  0
  9 10  1  0  0  0  0
 10 11  1  0  0  0  0
 11 12  2  0  0  0  0
 11 13  1  0  0  0  0
  9 14  1  0  0  0  0
  9 15  1  0  0  0  0
  6 16  1  0  0  0  0
  1 17  1  0  0  0  0
  1 18  1  0  0  0  0
M  CHG  4   3   1   5  -1  11   1  13  -1
M  END
> <CAS>
623-87-0

> <NAME>
1,2,3-PROPANETRIOL, 1,3-DINITRATE

> <preferred_name>


> <iupac>


> <SMILES>
[O-][N+](=O)OCC(O)CO[N+]([O-])=O

> <Canonical_QSARr>
[O-][N+](=O)OCC(O)CO[N+]([O-])=O

> <InChI_Code_QSARr>
InChI=1S/C3H6N2O7/c6-3(1-11-4(7)8)2-12-5(9)10/h3,6H,1-2H2

> <InChI Key_QSARr>
ASIGVDLTBLZXNC-UHFFFAOYSA-N

> <Salt_Solvent>
?

> <WS Temperature>
20

> <WS Reference>
YALKOWSKY,SH & DANNENFELSER,RM (1992)

> <dsstox_substance_id>


> <LogMolar>
-0.366

$$$$
624-24-8
  -INDIGO-01081615412D

 20 19  0  0  0  0  0  0  0  0999 V2000
   -3.2000    0.0000    0.0000 C   0  0  0  0  0  0  0  0  0  0  0  0
   -4.0000    1.3856    0.0000 O   0  0  0  0  0  0  0  0  0  0  0  0
   -4.0000   -1.3856    0.0000 O   0  0  0  0  0  0  0  0  0  0  0  0
   -5.6000   -1.3856    0.0000 C   0  0  0  0  0  0  0  0  0  0  0  0
   -7.2000   -1.3856    0.0000 H   0  0  0  0  0  0  0  0  0  0  0  0
   -6.4000   -2.7713    0.0000 H   0  0  0  0  0  0  0  0  0  0  0  0
   -6.4000    0.0000    0.0000 H   0  0  0  0  0  0  0  0  0  0  0  0
   -1.6000    0.0000    0.0000 C   0  0  0  0  0  0  0  0  0  0  0  0
    0.0000    0.0000    0.0000 C   0  0  0  0  0  0  0  0  0  0  0  0
    1.6000    0.0000    0.0000 C   0  0  0  0  0  0  0  0  0  0  0  0
    3.2000    0.0000    0.0000 C   0  0  0  0  0  0  0  0  0  0  0  0
    4.8000    0.0000    0.0000 H   0  0  0  0  0  0  0  0  0  0  0  0
    4.0000   -1.3856    0.0000 H   0  0  0  0  0  0  0  0  0  0  0  0
    4.0000    1.3856    0.0000 H   0  0  0  0  0  0  0  0  0  0  0  0
    1.6000   -1.6000    0.0000 H   0  0  0  0  0  0  0  0  0  0  0  0
    1.6000    1.6000    0.0000 H   0  0  0  0  0  0  0  0  0  0  0  0
    0.0000    1.6000    0.0000 H   0  0  0  0  0  0  0  0  0  0  0  0
    0.0000   -1.6000    0.0000 H   0  0  0  0  0  0  0  0  0  0  0  0
   -1.6000   -1.6000    0.0000 H   0  0  0  0  0  0  0  0  0  0  0  0
   -1.6000    1.6000    0.0000 H   0  0  0  0  0  0  0  0  0  0  0  0
  1  2  2  0  0  0  0
  1  3  1  0  0  0  0
  3  4  1  0  0  0  0
  4  5  1  0  0  0  0
  4  6  1  0  0  0  0
  4  7  1  0  0  0  0
  1  8  1  0  0  0  0
  8  9  1  0  0  0  0
  9 10  1  0  0  0  0
 10 11  1  0  0  0  0
 11 12  1  0  0  0  0
 11 13  1  0  0  0  0
 11 14  1  0  0  0  0
 10 15  1  0  0  0  0
 10 16  1  0  0  0  0
  9 17  1  0  0  0  0
  9 18  1  0  0  0  0
  8 19  1  0  0  0  0
  8 20  1  0  0  0  0
M  END
> <CAS>
624-24-8

> <NAME>
METHYL VALERATE

> <preferred_name>
Methyl valerate

> <iupac>
Methyl pentanoate

> <SMILES>
CCCCC(=O)OC

> <Canonical_QSARr>
CCCCC(=O)OC

> <InChI_Code_QSARr>
InChI=1S/C6H12O2/c1-3-4-5-6(7)8-2/h3-5H2,1-2H3

> <InChI Key_QSARr>
HNBDRPTVWVGKBR-UHFFFAOYSA-N

> <Salt_Solvent>
?

> <WS Temperature>
25

> <WS Reference>
KUHNE,R ET AL. (1995)

> <dsstox_substance_id>
DTXSID9060784

> <LogMolar>
-1.3606

$$$$
624-54-4
  -INDIGO-01081615412D

 26 25  0  0  0  0  0  0  0  0999 V2000
    5.6001   -1.3857    0.0000 C   0  0  0  0  0  0  0  0  0  0  0  0
    7.2000   -1.3857    0.0000 C   0  0  0  0  0  0  0  0  0  0  0  0
    8.8001   -1.3857    0.0000 C   0  0  0  0  0  0  0  0  0  0  0  0
   10.4000   -1.3857    0.0000 H   0  0  0  0  0  0  0  0  0  0  0  0
    9.6000   -2.7713    0.0000 H   0  0  0  0  0  0  0  0  0  0  0  0
    9.6000    0.0000    0.0000 H   0  0  0  0  0  0  0  0  0  0  0  0
    7.2000   -2.9856    0.0000 H   0  0  0  0  0  0  0  0  0  0  0  0
    7.2000    0.2143    0.0000 H   0  0  0  0  0  0  0  0  0  0  0  0
    4.8001    0.0000    0.0000 O   0  0  0  0  0  0  0  0  0  0  0  0
    3.2000    0.0000    0.0000 C   0  0  0  0  0  0  0  0  0  0  0  0
    1.6001    0.0000    0.0000 C   0  0  0  0  0  0  0  0  0  0  0  0
   -0.0001    0.0000    0.0000 C   0  0  0  0  0  0  0  0  0  0  0  0
   -1.6000    0.0000    0.0000 C   0  0  0  0  0  0  0  0  0  0  0  0
   -3.2001    0.0000    0.0000 C   0  0  0  0  0  0  0  0  0  0  0  0
   -4.8000    0.0000    0.0000 H   0  0  0  0  0  0  0  0  0  0  0  0
   -4.0000   -1.3857    0.0000 H   0  0  0  0  0  0  0  0  0  0  0  0
   -4.0000    1.3857    0.0000 H   0  0  0  0  0  0  0  0  0  0  0  0
   -1.6000   -1.6000    0.0000 H   0  0  0  0  0  0  0  0  0  0  0  0
   -1.6000    1.6000    0.0000 H   0  0  0  0  0  0  0  0  0  0  0  0
   -0.0001    1.6000    0.0000 H   0  0  0  0  0  0  0  0  0  0  0  0
   -0.0001   -1.6000    0.0000 H   0  0  0  0  0  0  0  0  0  0  0  0
    1.6001   -1.6000    0.0000 H   0  0  0  0  0  0  0  0  0  0  0  0
    1.6001    1.6000    0.0000 H   0  0  0  0  0  0  0  0  0  0  0  0
    3.2000   -1.6000    0.0000 H   0  0  0  0  0  0  0  0  0  0  0  0
    3.2000    1.6000    0.0000 H   0  0  0  0  0  0  0  0  0  0  0  0
    4.8001   -2.7713    0.0000 O   0  0  0  0  0  0  0  0  0  0  0  0
  1  2  1  0  0  0  0
  2  3  1  0  0  0  0
  3  4  1  0  0  0  0
  3  5  1  0  0  0  0
  3  6  1  0  0  0  0
  2  7  1  0  0  0  0
  2  8  1  0  0  0  0
  1  9  1  0  0  0  0
  9 10  1  0  0  0  0
 10 11  1  0  0  0  0
 11 12  1  0  0  0  0
 12 13  1  0  0  0  0
 13 14  1  0  0  0  0
 14 15  1  0  0  0  0
 14 16  1  0  0  0  0
 14 17  1  0  0  0  0
 13 18  1  0  0  0  0
 13 19  1  0  0  0  0
 12 20  1  0  0  0  0
 12 21  1  0  0  0  0
 11 22  1  0  0  0  0
 11 23  1  0  0  0  0
 10 24  1  0  0  0  0
 10 25  1  0  0  0  0
  1 26  2  0  0  0  0
M  END
> <CAS>
624-54-4

> <NAME>
AMYL PROPIONATE

> <preferred_name>
Pentyl propionate

> <iupac>
pentyl propanoate

> <SMILES>
CCCCCOC(=O)CC

> <Canonical_QSARr>
CCCCCOC(=O)CC

> <InChI_Code_QSARr>
InChI=1S/C8H16O2/c1-3-5-6-7-10-8(9)4-2/h3-7H2,1-2H3

> <InChI Key_QSARr>
TWSRVQVEYJNFKQ-UHFFFAOYSA-N

> <Salt_Solvent>
?

> <WS Temperature>
25

> <WS Reference>
HINE,J & MOOKERJEE,PK (1975)

> <dsstox_substance_id>
DTXSID4041606

> <LogMolar>
-2.2505

$$$$
625-06-9
  -INDIGO-01081615412D

 24 23  0  0  0  0  0  0  0  0999 V2000
    0.8000   -1.3856    0.0000 O   0  0  0  0  0  0  0  0  0  0  0  0
    0.0000    0.0000    0.0000 C   0  0  0  0  0  0  0  0  0  0  0  0
   -1.3857   -0.8000    0.0000 C   0  0  0  0  0  0  0  0  0  0  0  0
   -2.7713   -1.6000    0.0000 H   0  0  0  0  0  0  0  0  0  0  0  0
   -1.3857   -2.4000    0.0000 H   0  0  0  0  0  0  0  0  0  0  0  0
   -2.7713    0.0000    0.0000 H   0  0  0  0  0  0  0  0  0  0  0  0
   -0.8001    1.3856    0.0000 C   0  0  0  0  0  0  0  0  0  0  0  0
   -1.6000    2.7713    0.0000 H   0  0  0  0  0  0  0  0  0  0  0  0
   -2.4000    1.3856    0.0000 H   0  0  0  0  0  0  0  0  0  0  0  0
    0.0000    2.7713    0.0000 H   0  0  0  0  0  0  0  0  0  0  0  0
    1.5036    0.5472    0.0000 C   0  0  0  0  0  0  0  0  0  0  0  0
    3.0070    1.0945    0.0000 C   0  0  0  0  0  0  0  0  0  0  0  0
    4.3927    1.8944    0.0000 C   0  0  0  0  0  0  0  0  0  0  0  0
    5.7783    2.6945    0.0000 H   0  0  0  0  0  0  0  0  0  0  0  0
    5.7783    1.0945    0.0000 H   0  0  0  0  0  0  0  0  0  0  0  0
    4.3927    3.4945    0.0000 H   0  0  0  0  0  0  0  0  0  0  0  0
    3.8071   -0.2912    0.0000 C   0  0  0  0  0  0  0  0  0  0  0  0
    4.6070   -1.6768    0.0000 H   0  0  0  0  0  0  0  0  0  0  0  0
    5.4070   -0.2912    0.0000 H   0  0  0  0  0  0  0  0  0  0  0  0
    3.2598   -1.7947    0.0000 H   0  0  0  0  0  0  0  0  0  0  0  0
    2.2070    2.4801    0.0000 H   0  0  0  0  0  0  0  0  0  0  0  0
    2.0507   -0.9562    0.0000 H   0  0  0  0  0  0  0  0  0  0  0  0
    0.9563    2.0508    0.0000 H   0  0  0  0  0  0  0  0  0  0  0  0
    0.0000   -2.7713    0.0000 H   0  0  0  0  0  0  0  0  0  0  0  0
  1  2  1  0  0  0  0
  2  3  1  0  0  0  0
  3  4  1  0  0  0  0
  3  5  1  0  0  0  0
  3  6  1  0  0  0  0
  2  7  1  0  0  0  0
  7  8  1  0  0  0  0
  7  9  1  0  0  0  0
  7 10  1  0  0  0  0
  2 11  1  0  0  0  0
 11 12  1  0  0  0  0
 12 13  1  0  0  0  0
 13 14  1  0  0  0  0
 13 15  1  0  0  0  0
 13 16  1  0  0  0  0
 12 17  1  0  0  0  0
 17 18  1  0  0  0  0
 17 19  1  0  0  0  0
 17 20  1  0  0  0  0
 12 21  1  0  0  0  0
 11 22  1  0  0  0  0
 11 23  1  0  0  0  0
  1 24  1  0  0  0  0
M  END
> <CAS>
625-06-9

> <NAME>
2,4-DIMETHYL-2-PENTANOL

> <preferred_name>
2,4-Dimethylpentan-2-ol

> <iupac>
2,4-Dimethylpentan-2-ol

> <SMILES>
CC(C)CC(C)(C)O

> <Canonical_QSARr>
CC(C)CC(C)(C)O

> <InChI_Code_QSARr>
InChI=1S/C7H16O/c1-6(2)5-7(3,4)8/h6,8H,5H2,1-4H3

> <InChI Key_QSARr>
FMLSQAUAAGVTJO-UHFFFAOYSA-N

> <Salt_Solvent>
?

> <WS Temperature>
25

> <WS Reference>
SUZUKI,T (1991)

> <dsstox_substance_id>
DTXSID60211534

> <LogMolar>
-0.94585

$$$$
625-29-6
  -INDIGO-01081615412D

 17 16  0  0  0  0  0  0  0  0999 V2000
    3.2001    0.0000    0.0000 C   0  0  0  0  0  0  0  0  0  0  0  0
    1.6000    0.0000    0.0000 C   0  0  0  0  0  0  0  0  0  0  0  0
    1.6000   -1.6000    0.0000 Cl  0  0  0  0  0  0  0  0  0  0  0  0
    0.0001    0.0000    0.0000 C   0  0  0  0  0  0  0  0  0  0  0  0
   -1.6000    0.0000    0.0000 C   0  0  0  0  0  0  0  0  0  0  0  0
   -3.1999   -0.0000    0.0000 C   0  0  0  0  0  0  0  0  0  0  0  0
   -4.8000   -0.0000    0.0000 H   0  0  0  0  0  0  0  0  0  0  0  0
   -4.0000   -1.3856    0.0000 H   0  0  0  0  0  0  0  0  0  0  0  0
   -4.0000    1.3856    0.0000 H   0  0  0  0  0  0  0  0  0  0  0  0
   -1.6000   -1.6000    0.0000 H   0  0  0  0  0  0  0  0  0  0  0  0
   -1.6000    1.6000    0.0000 H   0  0  0  0  0  0  0  0  0  0  0  0
    0.0001    1.6000    0.0000 H   0  0  0  0  0  0  0  0  0  0  0  0
    0.0001   -1.6000    0.0000 H   0  0  0  0  0  0  0  0  0  0  0  0
    1.6000    1.6000    0.0000 H   0  0  0  0  0  0  0  0  0  0  0  0
    4.8000    0.0000    0.0000 H   0  0  0  0  0  0  0  0  0  0  0  0
    4.0000   -1.3856    0.0000 H   0  0  0  0  0  0  0  0  0  0  0  0
    4.0000    1.3856    0.0000 H   0  0  0  0  0  0  0  0  0  0  0  0
  1  2  1  0  0  0  0
  2  3  1  0  0  0  0
  2  4  1  0  0  0  0
  4  5  1  0  0  0  0
  5  6  1  0  0  0  0
  6  7  1  0  0  0  0
  6  8  1  0  0  0  0
  6  9  1  0  0  0  0
  5 10  1  0  0  0  0
  5 11  1  0  0  0  0
  4 12  1  0  0  0  0
  4 13  1  0  0  0  0
  2 14  1  0  0  0  0
  1 15  1  0  0  0  0
  1 16  1  0  0  0  0
  1 17  1  0  0  0  0
M  END
> <CAS>
625-29-6

> <NAME>
2-CHLOROPENTANE

> <preferred_name>


> <iupac>


> <SMILES>
CCCC(C)Cl

> <Canonical_QSARr>
CCCC(C)Cl

> <InChI_Code_QSARr>
InChI=1S/C5H11Cl/c1-3-4-5(2)6/h5H,3-4H2,1-2H3

> <InChI Key_QSARr>
NFRKUDYZEVQXTE-UHFFFAOYSA-N

> <Salt_Solvent>
?

> <WS Temperature>
25

> <WS Reference>
HINE,J & MOOKERJEE,PK (1975)

> <dsstox_substance_id>


> <LogMolar>
-2.49515

$$$$
625-54-7
  -INDIGO-01081615412D

 18 17  0  0  0  0  0  0  0  0999 V2000
    1.5756    0.2778    0.0000 O   0  0  0  0  0  0  0  0  0  0  0  0
    2.8014   -0.7507    0.0000 C   0  0  0  0  0  0  0  0  0  0  0  0
    4.0271    0.2778    0.0000 C   0  0  0  0  0  0  0  0  0  0  0  0
    5.2527    1.3063    0.0000 H   0  0  0  0  0  0  0  0  0  0  0  0
    5.5305   -0.2694    0.0000 H   0  0  0  0  0  0  0  0  0  0  0  0
    3.7492    1.8536    0.0000 H   0  0  0  0  0  0  0  0  0  0  0  0
    3.8298   -1.9763    0.0000 H   0  0  0  0  0  0  0  0  0  0  0  0
    1.5756   -1.7791    0.0000 H   0  0  0  0  0  0  0  0  0  0  0  0
   -0.0000    0.0000    0.0000 C   0  0  0  0  0  0  0  0  0  0  0  0
   -0.0000    1.6000    0.0000 C   0  0  0  0  0  0  0  0  0  0  0  0
   -0.0000    3.2000    0.0000 H   0  0  0  0  0  0  0  0  0  0  0  0
   -1.3857    2.4000    0.0000 H   0  0  0  0  0  0  0  0  0  0  0  0
    1.3856    2.4000    0.0000 H   0  0  0  0  0  0  0  0  0  0  0  0
   -0.5473   -1.5035    0.0000 C   0  0  0  0  0  0  0  0  0  0  0  0
   -1.0945   -3.0070    0.0000 H   0  0  0  0  0  0  0  0  0  0  0  0
   -2.1229   -1.7813    0.0000 H   0  0  0  0  0  0  0  0  0  0  0  0
    0.4813   -2.7292    0.0000 H   0  0  0  0  0  0  0  0  0  0  0  0
   -1.6000    0.0000    0.0000 H   0  0  0  0  0  0  0  0  0  0  0  0
  1  2  1  0  0  0  0
  2  3  1  0  0  0  0
  3  4  1  0  0  0  0
  3  5  1  0  0  0  0
  3  6  1  0  0  0  0
  2  7  1  0  0  0  0
  2  8  1  0  0  0  0
  1  9  1  0  0  0  0
  9 10  1  0  0  0  0
 10 11  1  0  0  0  0
 10 12  1  0  0  0  0
 10 13  1  0  0  0  0
  9 14  1  0  0  0  0
 14 15  1  0  0  0  0
 14 16  1  0  0  0  0
 14 17  1  0  0  0  0
  9 18  1  0  0  0  0
M  END
> <CAS>
625-54-7

> <NAME>
ETHYL ISOPROPYL ETHER

> <preferred_name>
Propane, 2-ethoxy-

> <iupac>
2-Ethoxypropane

> <SMILES>
CCOC(C)C

> <Canonical_QSARr>
CCOC(C)C

> <InChI_Code_QSARr>
InChI=1S/C5H12O/c1-4-6-5(2)3/h5H,4H2,1-3H3

> <InChI Key_QSARr>
XSJVWZAETSBXKU-UHFFFAOYSA-N

> <Salt_Solvent>
?

> <WS Temperature>
25

> <WS Reference>
SUZUKI,T (1991)

> <dsstox_substance_id>
DTXSID5060805

> <LogMolar>
-0.55585

$$$$
626-03-9
  -INDIGO-01081615412D

 13 13  0  0  0  0  0  0  0  0999 V2000
    0.0000   -0.0000    0.0000 C   0  0  0  0  0  0  0  0  0  0  0  0
    1.6000    0.0000    0.0000 O   0  0  0  0  0  0  0  0  0  0  0  0
    2.4000   -1.3856    0.0000 H   0  0  0  0  0  0  0  0  0  0  0  0
   -0.8000    1.3856    0.0000 C   0  0  0  0  0  0  0  0  0  0  0  0
    0.0000    2.7713    0.0000 H   0  0  0  0  0  0  0  0  0  0  0  0
   -2.4000    1.3856    0.0000 C   0  0  0  0  0  0  0  0  0  0  0  0
   -3.2000    2.7713    0.0000 O   0  0  0  0  0  0  0  0  0  0  0  0
   -3.2000   -0.0000    0.0000 N   0  0  0  0  0  0  0  0  0  0  0  0
   -4.8000   -0.0000    0.0000 H   0  0  0  0  0  0  0  0  0  0  0  0
   -2.4000   -1.3856    0.0000 C   0  0  0  0  0  0  0  0  0  0  0  0
   -3.2000   -2.7713    0.0000 H   0  0  0  0  0  0  0  0  0  0  0  0
   -0.8000   -1.3856    0.0000 C   0  0  0  0  0  0  0  0  0  0  0  0
    0.0000   -2.7713    0.0000 H   0  0  0  0  0  0  0  0  0  0  0  0
  1  2  1  0  0  0  0
  2  3  1  0  0  0  0
  1  4  2  0  0  0  0
  4  5  1  0  0  0  0
  4  6  1  0  0  0  0
  6  7  2  0  0  0  0
  6  8  1  0  0  0  0
  8  9  1  0  0  0  0
  8 10  1  0  0  0  0
 10 11  1  0  0  0  0
 10 12  2  0  0  0  0
 12  1  1  0  0  0  0
 12 13  1  0  0  0  0
M  END
> <CAS>
626-03-9

> <NAME>
2,4-Dihydroxypyridine

> <preferred_name>
2,4-Dihydroxypyridine

> <iupac>
C5H5NO2

> <SMILES>
OC1=CC(=O)NC=C1

> <Canonical_QSARr>
OC1=CC(=O)NC=C1

> <InChI_Code_QSARr>
InChI=1S/C5H5NO2/c7-4-1-2-6-5(8)3-4/h1-3H,(H2,6,7,8)

> <InChI Key_QSARr>
ZEZJPIDPVXJEME-UHFFFAOYSA-N

> <Salt_Solvent>
?

> <WS Temperature>
20

> <WS Reference>
YALKOWSKY,SH & DANNENFELSER,RM (1992)

> <dsstox_substance_id>
DTXSID90274238

> <LogMolar>
-1.2498

$$$$
626-48-2
  -INDIGO-01081615412D

 15 15  0  0  0  0  0  0  0  0999 V2000
   -0.7999    1.3856    0.0000 C   0  0  0  0  0  0  0  0  0  0  0  0
   -2.4001    1.3856    0.0000 C   0  0  0  0  0  0  0  0  0  0  0  0
   -3.2000    2.7713    0.0000 O   0  0  0  0  0  0  0  0  0  0  0  0
   -3.2000   -0.0000    0.0000 N   0  0  0  0  0  0  0  0  0  0  0  0
   -4.8000   -0.0000    0.0000 H   0  0  0  0  0  0  0  0  0  0  0  0
   -2.3999   -1.3856    0.0000 C   0  0  0  0  0  0  0  0  0  0  0  0
   -3.2000   -2.7713    0.0000 O   0  0  0  0  0  0  0  0  0  0  0  0
   -0.7999   -1.3856    0.0000 N   0  0  0  0  0  0  0  0  0  0  0  0
    0.0000   -2.7713    0.0000 H   0  0  0  0  0  0  0  0  0  0  0  0
    0.0000   -0.0000    0.0000 C   0  0  0  0  0  0  0  0  0  0  0  0
    1.6000    0.0000    0.0000 C   0  0  0  0  0  0  0  0  0  0  0  0
    3.2000    0.0000    0.0000 H   0  0  0  0  0  0  0  0  0  0  0  0
    2.4001   -1.3856    0.0000 H   0  0  0  0  0  0  0  0  0  0  0  0
    2.4001    1.3856    0.0000 H   0  0  0  0  0  0  0  0  0  0  0  0
    0.0000    2.7713    0.0000 H   0  0  0  0  0  0  0  0  0  0  0  0
  1  2  1  0  0  0  0
  2  3  2  0  0  0  0
  2  4  1  0  0  0  0
  4  5  1  0  0  0  0
  4  6  1  0  0  0  0
  6  7  2  0  0  0  0
  6  8  1  0  0  0  0
  8  9  1  0  0  0  0
  8 10  1  0  0  0  0
 10  1  2  0  0  0  0
 10 11  1  0  0  0  0
 11 12  1  0  0  0  0
 11 13  1  0  0  0  0
 11 14  1  0  0  0  0
  1 15  1  0  0  0  0
M  END
> <CAS>
626-48-2

> <NAME>
24PYRIMIDINEDIONE6METHYL

> <preferred_name>
6-Methyluracil

> <iupac>
6-methylpyrimidine-2,4(1H,3H)-dione

> <SMILES>
CC1=CC(=O)NC(=O)N1

> <Canonical_QSARr>
CC1=CC(=O)NC(=O)N1

> <InChI_Code_QSARr>
InChI=1S/C5H6N2O2/c1-3-2-4(8)7-5(9)6-3/h2H,1H3,(H2,6,7,8,9)

> <InChI Key_QSARr>
SHVCSCWHWMSGTE-UHFFFAOYSA-N

> <Salt_Solvent>
?

> <WS Temperature>
22

> <WS Reference>
YALKOWSKY,SH & DANNENFELSER,RM (1992)

> <dsstox_substance_id>
DTXSID8052308

> <LogMolar>
-1.2557

$$$$
626-86-8
  -INDIGO-01081615412D

 26 25  0  0  0  0  0  0  0  0999 V2000
   -3.2001    0.0000    0.0000 C   0  0  0  0  0  0  0  0  0  0  0  0
   -3.9999    1.3857    0.0000 O   0  0  0  0  0  0  0  0  0  0  0  0
   -3.9999   -1.3857    0.0000 O   0  0  0  0  0  0  0  0  0  0  0  0
   -5.6000   -1.3857    0.0000 C   0  0  0  0  0  0  0  0  0  0  0  0
   -7.2001   -1.3857    0.0000 C   0  0  0  0  0  0  0  0  0  0  0  0
   -8.8000   -1.3857    0.0000 H   0  0  0  0  0  0  0  0  0  0  0  0
   -7.9999   -2.7713    0.0000 H   0  0  0  0  0  0  0  0  0  0  0  0
   -7.9999    0.0000    0.0000 H   0  0  0  0  0  0  0  0  0  0  0  0
   -5.6000   -2.9856    0.0000 H   0  0  0  0  0  0  0  0  0  0  0  0
   -5.6000    0.2143    0.0000 H   0  0  0  0  0  0  0  0  0  0  0  0
   -1.5999    0.0000    0.0000 C   0  0  0  0  0  0  0  0  0  0  0  0
   -0.0001    0.0000    0.0000 C   0  0  0  0  0  0  0  0  0  0  0  0
    1.6001    0.0000    0.0000 C   0  0  0  0  0  0  0  0  0  0  0  0
    3.1999    0.0000    0.0000 C   0  0  0  0  0  0  0  0  0  0  0  0
    4.8001    0.0000    0.0000 C   0  0  0  0  0  0  0  0  0  0  0  0
    5.6001   -1.3857    0.0000 O   0  0  0  0  0  0  0  0  0  0  0  0
    5.6001    1.3857    0.0000 O   0  0  0  0  0  0  0  0  0  0  0  0
    7.2000    1.3857    0.0000 H   0  0  0  0  0  0  0  0  0  0  0  0
    3.1999   -1.6000    0.0000 H   0  0  0  0  0  0  0  0  0  0  0  0
    3.1999    1.6000    0.0000 H   0  0  0  0  0  0  0  0  0  0  0  0
    1.6001   -1.6000    0.0000 H   0  0  0  0  0  0  0  0  0  0  0  0
    1.6001    1.6000    0.0000 H   0  0  0  0  0  0  0  0  0  0  0  0
   -0.0001    1.6000    0.0000 H   0  0  0  0  0  0  0  0  0  0  0  0
   -0.0001   -1.6000    0.0000 H   0  0  0  0  0  0  0  0  0  0  0  0
   -1.5999   -1.6000    0.0000 H   0  0  0  0  0  0  0  0  0  0  0  0
   -1.5999    1.6000    0.0000 H   0  0  0  0  0  0  0  0  0  0  0  0
  1  2  2  0  0  0  0
  1  3  1  0  0  0  0
  3  4  1  0  0  0  0
  4  5  1  0  0  0  0
  5  6  1  0  0  0  0
  5  7  1  0  0  0  0
  5  8  1  0  0  0  0
  4  9  1  0  0  0  0
  4 10  1  0  0  0  0
  1 11  1  0  0  0  0
 11 12  1  0  0  0  0
 12 13  1  0  0  0  0
 13 14  1  0  0  0  0
 14 15  1  0  0  0  0
 15 16  2  0  0  0  0
 15 17  1  0  0  0  0
 17 18  1  0  0  0  0
 14 19  1  0  0  0  0
 14 20  1  0  0  0  0
 13 21  1  0  0  0  0
 13 22  1  0  0  0  0
 12 23  1  0  0  0  0
 12 24  1  0  0  0  0
 11 25  1  0  0  0  0
 11 26  1  0  0  0  0
M  END
> <CAS>
626-86-8

> <NAME>
HEXANEDIOIC ACID, MONOETHYL ESTER

> <preferred_name>


> <iupac>


> <SMILES>
CCOC(=O)CCCCC(O)=O

> <Canonical_QSARr>
CCOC(=O)CCCCC(O)=O

> <InChI_Code_QSARr>
InChI=1S/C8H14O4/c1-2-12-8(11)6-4-3-5-7(9)10/h2-6H2,1H3,(H,9,10)

> <InChI Key_QSARr>
UZNLHJCCGYKCIL-UHFFFAOYSA-N

> <Salt_Solvent>
?

> <WS Temperature>
25

> <WS Reference>
CHEMICALS INSPECTION AND TESTING INSTITU (1992)

> <dsstox_substance_id>


> <LogMolar>
-0.3602

$$$$
627-05-4
  -INDIGO-01081615412D

 16 15  0  0  0  0  0  0  0  0999 V2000
   -4.0000    1.3856    0.0000 O   0  0  0  0  0  0  0  0  0  0  0  0
   -3.2000   -0.0000    0.0000 N   0  0  0  0  0  0  0  0  0  0  0  0
   -1.6000    0.0000    0.0000 C   0  0  0  0  0  0  0  0  0  0  0  0
    0.0000    0.0000    0.0000 C   0  0  0  0  0  0  0  0  0  0  0  0
    1.6000    0.0000    0.0000 C   0  0  0  0  0  0  0  0  0  0  0  0
    3.2001    0.0000    0.0000 C   0  0  0  0  0  0  0  0  0  0  0  0
    4.8000    0.0000    0.0000 H   0  0  0  0  0  0  0  0  0  0  0  0
    4.0000   -1.3856    0.0000 H   0  0  0  0  0  0  0  0  0  0  0  0
    4.0000    1.3856    0.0000 H   0  0  0  0  0  0  0  0  0  0  0  0
    1.6000   -1.6000    0.0000 H   0  0  0  0  0  0  0  0  0  0  0  0
    1.6000    1.6000    0.0000 H   0  0  0  0  0  0  0  0  0  0  0  0
    0.0000    1.6000    0.0000 H   0  0  0  0  0  0  0  0  0  0  0  0
    0.0000   -1.6000    0.0000 H   0  0  0  0  0  0  0  0  0  0  0  0
   -1.6000   -1.6000    0.0000 H   0  0  0  0  0  0  0  0  0  0  0  0
   -1.6000    1.6000    0.0000 H   0  0  0  0  0  0  0  0  0  0  0  0
   -4.0000   -1.3856    0.0000 O   0  0  0  0  0  0  0  0  0  0  0  0
  1  2  1  0  0  0  0
  2  3  1  0  0  0  0
  3  4  1  0  0  0  0
  4  5  1  0  0  0  0
  5  6  1  0  0  0  0
  6  7  1  0  0  0  0
  6  8  1  0  0  0  0
  6  9  1  0  0  0  0
  5 10  1  0  0  0  0
  5 11  1  0  0  0  0
  4 12  1  0  0  0  0
  4 13  1  0  0  0  0
  3 14  1  0  0  0  0
  3 15  1  0  0  0  0
  2 16  2  0  0  0  0
M  CHG  2   1  -1   2   1
M  END
> <CAS>
627-05-4

> <NAME>
1-NITROBUTANE

> <preferred_name>
1-Nitrobutane

> <iupac>
1-nitrobutane

> <SMILES>
CCCC[N+]([O-])=O

> <Canonical_QSARr>
CCCC[N+]([O-])=O

> <InChI_Code_QSARr>
InChI=1S/C4H9NO2/c1-2-3-4-5(6)7/h2-4H2,1H3

> <InChI Key_QSARr>
NALZTFARIYUCBY-UHFFFAOYSA-N

> <Salt_Solvent>
?

> <WS Temperature>
25

> <WS Reference>
EPA

> <dsstox_substance_id>
DTXSID8020967

> <LogMolar>
-1.3506

$$$$
627-18-9
  -INDIGO-01081615412D

 12 11  0  0  0  0  0  0  0  0999 V2000
    3.2000    0.0000    0.0000 O   0  0  0  0  0  0  0  0  0  0  0  0
    1.6000    0.0000    0.0000 C   0  0  0  0  0  0  0  0  0  0  0  0
    0.0000    0.0000    0.0000 C   0  0  0  0  0  0  0  0  0  0  0  0
   -1.6000   -0.0000    0.0000 C   0  0  0  0  0  0  0  0  0  0  0  0
   -3.2000   -0.0000    0.0000 Br  0  0  0  0  0  0  0  0  0  0  0  0
   -2.4000   -1.3856    0.0000 H   0  0  0  0  0  0  0  0  0  0  0  0
   -2.4000    1.3856    0.0000 H   0  0  0  0  0  0  0  0  0  0  0  0
    0.0000    1.6000    0.0000 H   0  0  0  0  0  0  0  0  0  0  0  0
    0.0000   -1.6000    0.0000 H   0  0  0  0  0  0  0  0  0  0  0  0
    1.6000   -1.6000    0.0000 H   0  0  0  0  0  0  0  0  0  0  0  0
    1.6000    1.6000    0.0000 H   0  0  0  0  0  0  0  0  0  0  0  0
    4.0000   -1.3856    0.0000 H   0  0  0  0  0  0  0  0  0  0  0  0
  1  2  1  0  0  0  0
  2  3  1  0  0  0  0
  3  4  1  0  0  0  0
  4  5  1  0  0  0  0
  4  6  1  0  0  0  0
  4  7  1  0  0  0  0
  3  8  1  0  0  0  0
  3  9  1  0  0  0  0
  2 10  1  0  0  0  0
  2 11  1  0  0  0  0
  1 12  1  0  0  0  0
M  END
> <CAS>
627-18-9

> <NAME>
3-BROMOPROPANOL

> <preferred_name>
3-Bromo-1-propanol

> <iupac>
3-bromopropan-1-ol

> <SMILES>
OCCCBr

> <Canonical_QSARr>
OCCCBr

> <InChI_Code_QSARr>
InChI=1S/C3H7BrO/c4-2-1-3-5/h5H,1-3H2

> <InChI Key_QSARr>
RQFUZUMFPRMVDX-UHFFFAOYSA-N

> <Salt_Solvent>
?

> <WS Temperature>
20

> <WS Reference>
YALKOWSKY,SH & DANNENFELSER,RM (1992)

> <dsstox_substance_id>
DTXSID3024657

> <LogMolar>
0.0093

$$$$
627-59-8
  -INDIGO-01081615412D

 24 23  0  0  0  0  0  0  0  0999 V2000
    6.0140    2.1889    0.0000 C   0  0  0  0  0  0  0  0  0  0  0  0
    4.5106    1.6417    0.0000 C   0  0  0  0  0  0  0  0  0  0  0  0
    5.0577    0.1382    0.0000 O   0  0  0  0  0  0  0  0  0  0  0  0
    6.6335   -0.1397    0.0000 H   0  0  0  0  0  0  0  0  0  0  0  0
    3.0070    1.0945    0.0000 C   0  0  0  0  0  0  0  0  0  0  0  0
    1.5034    0.5473    0.0000 C   0  0  0  0  0  0  0  0  0  0  0  0
    0.0000    0.0000    0.0000 C   0  0  0  0  0  0  0  0  0  0  0  0
   -1.3856   -0.8000    0.0000 C   0  0  0  0  0  0  0  0  0  0  0  0
   -2.7713   -1.6000    0.0000 H   0  0  0  0  0  0  0  0  0  0  0  0
   -1.3856   -2.4000    0.0000 H   0  0  0  0  0  0  0  0  0  0  0  0
   -2.7713    0.0000    0.0000 H   0  0  0  0  0  0  0  0  0  0  0  0
   -0.8000    1.3856    0.0000 C   0  0  0  0  0  0  0  0  0  0  0  0
   -1.5999    2.7713    0.0000 H   0  0  0  0  0  0  0  0  0  0  0  0
   -2.4000    1.3856    0.0000 H   0  0  0  0  0  0  0  0  0  0  0  0
   -0.2527    2.8891    0.0000 H   0  0  0  0  0  0  0  0  0  0  0  0
    0.7999   -1.3857    0.0000 H   0  0  0  0  0  0  0  0  0  0  0  0
    2.0507   -0.9563    0.0000 H   0  0  0  0  0  0  0  0  0  0  0  0
    0.9563    2.0507    0.0000 H   0  0  0  0  0  0  0  0  0  0  0  0
    3.5543   -0.4090    0.0000 H   0  0  0  0  0  0  0  0  0  0  0  0
    2.4597    2.5980    0.0000 H   0  0  0  0  0  0  0  0  0  0  0  0
    3.9633    3.1452    0.0000 H   0  0  0  0  0  0  0  0  0  0  0  0
    7.5175    2.7362    0.0000 H   0  0  0  0  0  0  0  0  0  0  0  0
    7.2397    1.1605    0.0000 H   0  0  0  0  0  0  0  0  0  0  0  0
    6.2919    3.7646    0.0000 H   0  0  0  0  0  0  0  0  0  0  0  0
  1  2  1  0  0  0  0
  2  3  1  0  0  0  0
  3  4  1  0  0  0  0
  2  5  1  0  0  0  0
  5  6  1  0  0  0  0
  6  7  1  0  0  0  0
  7  8  1  0  0  0  0
  8  9  1  0  0  0  0
  8 10  1  0  0  0  0
  8 11  1  0  0  0  0
  7 12  1  0  0  0  0
 12 13  1  0  0  0  0
 12 14  1  0  0  0  0
 12 15  1  0  0  0  0
  7 16  1  0  0  0  0
  6 17  1  0  0  0  0
  6 18  1  0  0  0  0
  5 19  1  0  0  0  0
  5 20  1  0  0  0  0
  2 21  1  0  0  0  0
  1 22  1  0  0  0  0
  1 23  1  0  0  0  0
  1 24  1  0  0  0  0
M  END
> <CAS>
627-59-8

> <NAME>
5-METHYL-2-HEXANOL

> <preferred_name>


> <iupac>


> <SMILES>
CC(C)CCC(C)O

> <Canonical_QSARr>
CC(C)CCC(C)O

> <InChI_Code_QSARr>
InChI=1S/C7H16O/c1-6(2)4-5-7(3)8/h6-8H,4-5H2,1-3H3

> <InChI Key_QSARr>
ZDVJGWXFXGJSIU-UHFFFAOYSA-N

> <Salt_Solvent>
?

> <WS Temperature>
25

> <WS Reference>
BARTON,AFM (1984)

> <dsstox_substance_id>


> <LogMolar>
-1.3775

$$$$
628-28-4
  -INDIGO-01081615412D

 18 17  0  0  0  0  0  0  0  0999 V2000
   -0.0000    0.0000    0.0000 C   0  0  0  0  0  0  0  0  0  0  0  0
    1.5999    0.0000    0.0000 C   0  0  0  0  0  0  0  0  0  0  0  0
    3.2000    0.0000    0.0000 C   0  0  0  0  0  0  0  0  0  0  0  0
    4.8000    0.0000    0.0000 H   0  0  0  0  0  0  0  0  0  0  0  0
    4.0000   -1.3856    0.0000 H   0  0  0  0  0  0  0  0  0  0  0  0
    4.0000    1.3856    0.0000 H   0  0  0  0  0  0  0  0  0  0  0  0
    1.5999   -1.6000    0.0000 H   0  0  0  0  0  0  0  0  0  0  0  0
    1.5999    1.6000    0.0000 H   0  0  0  0  0  0  0  0  0  0  0  0
   -1.6000    0.0000    0.0000 C   0  0  0  0  0  0  0  0  0  0  0  0
   -3.2001    0.0000    0.0000 O   0  0  0  0  0  0  0  0  0  0  0  0
   -4.0000   -1.3856    0.0000 C   0  0  0  0  0  0  0  0  0  0  0  0
   -5.6000   -1.3856    0.0000 H   0  0  0  0  0  0  0  0  0  0  0  0
   -4.8000   -2.7713    0.0000 H   0  0  0  0  0  0  0  0  0  0  0  0
   -3.2001   -2.7713    0.0000 H   0  0  0  0  0  0  0  0  0  0  0  0
   -1.6000   -1.6000    0.0000 H   0  0  0  0  0  0  0  0  0  0  0  0
   -1.6000    1.6000    0.0000 H   0  0  0  0  0  0  0  0  0  0  0  0
   -0.0000    1.6000    0.0000 H   0  0  0  0  0  0  0  0  0  0  0  0
   -0.0000   -1.6000    0.0000 H   0  0  0  0  0  0  0  0  0  0  0  0
  1  2  1  0  0  0  0
  2  3  1  0  0  0  0
  3  4  1  0  0  0  0
  3  5  1  0  0  0  0
  3  6  1  0  0  0  0
  2  7  1  0  0  0  0
  2  8  1  0  0  0  0
  1  9  1  0  0  0  0
  9 10  1  0  0  0  0
 10 11  1  0  0  0  0
 11 12  1  0  0  0  0
 11 13  1  0  0  0  0
 11 14  1  0  0  0  0
  9 15  1  0  0  0  0
  9 16  1  0  0  0  0
  1 17  1  0  0  0  0
  1 18  1  0  0  0  0
M  END
> <CAS>
628-28-4

> <NAME>
METHYL N-BUTYL ETHER

> <preferred_name>
Butane, 1-methoxy-

> <iupac>
1-Methoxybutane

> <SMILES>
CCCCOC

> <Canonical_QSARr>
CCCCOC

> <InChI_Code_QSARr>
InChI=1S/C5H12O/c1-3-4-5-6-2/h3-5H2,1-2H3

> <InChI Key_QSARr>
CXBDYQVECUFKRK-UHFFFAOYSA-N

> <Salt_Solvent>
?

> <WS Temperature>
25

> <WS Reference>
SUZUKI,T (1991)

> <dsstox_substance_id>
DTXSID5074559

> <LogMolar>
-0.9907

$$$$
628-66-0
  -INDIGO-01081615412D

 23 22  0  0  0  0  0  0  0  0999 V2000
    3.2000    0.0000    0.0000 O   0  0  0  0  0  0  0  0  0  0  0  0
    4.0001    1.3856    0.0000 C   0  0  0  0  0  0  0  0  0  0  0  0
    5.5999    1.3856    0.0000 C   0  0  0  0  0  0  0  0  0  0  0  0
    7.2000    1.3856    0.0000 H   0  0  0  0  0  0  0  0  0  0  0  0
    6.4000    2.7713    0.0000 H   0  0  0  0  0  0  0  0  0  0  0  0
    6.4000    0.0000    0.0000 H   0  0  0  0  0  0  0  0  0  0  0  0
    3.2000    2.7713    0.0000 O   0  0  0  0  0  0  0  0  0  0  0  0
    1.6000    0.0000    0.0000 C   0  0  0  0  0  0  0  0  0  0  0  0
    0.0001    0.0000    0.0000 C   0  0  0  0  0  0  0  0  0  0  0  0
   -1.6000   -0.0000    0.0000 C   0  0  0  0  0  0  0  0  0  0  0  0
   -3.2000   -0.0000    0.0000 O   0  0  0  0  0  0  0  0  0  0  0  0
   -4.0001   -1.3856    0.0000 C   0  0  0  0  0  0  0  0  0  0  0  0
   -5.5999   -1.3856    0.0000 C   0  0  0  0  0  0  0  0  0  0  0  0
   -7.2000   -1.3856    0.0000 H   0  0  0  0  0  0  0  0  0  0  0  0
   -6.4000   -2.7713    0.0000 H   0  0  0  0  0  0  0  0  0  0  0  0
   -6.4000   -0.0000    0.0000 H   0  0  0  0  0  0  0  0  0  0  0  0
   -3.2000   -2.7713    0.0000 O   0  0  0  0  0  0  0  0  0  0  0  0
   -1.6000   -1.6000    0.0000 H   0  0  0  0  0  0  0  0  0  0  0  0
   -1.6000    1.6000    0.0000 H   0  0  0  0  0  0  0  0  0  0  0  0
    0.0001    1.6000    0.0000 H   0  0  0  0  0  0  0  0  0  0  0  0
    0.0001   -1.6000    0.0000 H   0  0  0  0  0  0  0  0  0  0  0  0
    1.6000   -1.6000    0.0000 H   0  0  0  0  0  0  0  0  0  0  0  0
    1.6000    1.6000    0.0000 H   0  0  0  0  0  0  0  0  0  0  0  0
  1  2  1  0  0  0  0
  2  3  1  0  0  0  0
  3  4  1  0  0  0  0
  3  5  1  0  0  0  0
  3  6  1  0  0  0  0
  2  7  2  0  0  0  0
  1  8  1  0  0  0  0
  8  9  1  0  0  0  0
  9 10  1  0  0  0  0
 10 11  1  0  0  0  0
 11 12  1  0  0  0  0
 12 13  1  0  0  0  0
 13 14  1  0  0  0  0
 13 15  1  0  0  0  0
 13 16  1  0  0  0  0
 12 17  2  0  0  0  0
 10 18  1  0  0  0  0
 10 19  1  0  0  0  0
  9 20  1  0  0  0  0
  9 21  1  0  0  0  0
  8 22  1  0  0  0  0
  8 23  1  0  0  0  0
M  END
> <CAS>
628-66-0

> <NAME>
1,3-PROPANEDIOL, DIACETATE

> <preferred_name>
1,3-Propanediol, diacetate

> <iupac>
3-acetyloxypropyl acetate

> <SMILES>
CC(=O)OCCCOC(C)=O

> <Canonical_QSARr>
CC(=O)OCCCOC(C)=O

> <InChI_Code_QSARr>
InChI=1S/C7H12O4/c1-6(8)10-4-3-5-11-7(2)9/h3-5H2,1-2H3

> <InChI Key_QSARr>
DSVGICPKBRQDDX-UHFFFAOYSA-N

> <Salt_Solvent>
?

> <WS Temperature>


> <WS Reference>
BEILSTEIN

> <dsstox_substance_id>
DTXSID30211889

> <LogMolar>
-0.2046

$$$$
628-96-6
  -INDIGO-01081615412D

 14 13  0  0  0  0  0  0  0  0999 V2000
   -0.0001    0.0000    0.0000 C   0  0  0  0  0  0  0  0  0  0  0  0
   -1.3857    0.8000    0.0000 O   0  0  0  0  0  0  0  0  0  0  0  0
   -2.7713    0.0000    0.0000 N   0  0  0  0  0  0  0  0  0  0  0  0
   -4.1569    0.8000    0.0000 O   0  0  0  0  0  0  0  0  0  0  0  0
   -2.7713   -1.6000    0.0000 O   0  0  0  0  0  0  0  0  0  0  0  0
    1.3857   -0.8000    0.0000 C   0  0  0  0  0  0  0  0  0  0  0  0
    2.7713   -1.6000    0.0000 O   0  0  0  0  0  0  0  0  0  0  0  0
    4.1569   -0.8000    0.0000 N   0  0  0  0  0  0  0  0  0  0  0  0
    5.5426   -1.6000    0.0000 O   0  0  0  0  0  0  0  0  0  0  0  0
    4.1569    0.8000    0.0000 O   0  0  0  0  0  0  0  0  0  0  0  0
    0.5856   -2.1856    0.0000 H   0  0  0  0  0  0  0  0  0  0  0  0
    2.1857    0.5857    0.0000 H   0  0  0  0  0  0  0  0  0  0  0  0
    0.8001    1.3856    0.0000 H   0  0  0  0  0  0  0  0  0  0  0  0
   -0.8000   -1.3857    0.0000 H   0  0  0  0  0  0  0  0  0  0  0  0
  1  2  1  0  0  0  0
  2  3  1  0  0  0  0
  3  4  2  0  0  0  0
  3  5  1  0  0  0  0
  1  6  1  0  0  0  0
  6  7  1  0  0  0  0
  7  8  1  0  0  0  0
  8  9  2  0  0  0  0
  8 10  1  0  0  0  0
  6 11  1  0  0  0  0
  6 12  1  0  0  0  0
  1 13  1  0  0  0  0
  1 14  1  0  0  0  0
M  CHG  4   3   1   5  -1   8   1  10  -1
M  END
> <CAS>
628-96-6

> <NAME>
ETHYLENE GLYCOL DINITRATE

> <preferred_name>
Ethylene glycol dinitrate

> <iupac>
ethane-1,2-diyl dinitrate

> <SMILES>
[O-][N+](=O)OCCO[N+]([O-])=O

> <Canonical_QSARr>
[O-][N+](=O)OCCO[N+]([O-])=O

> <InChI_Code_QSARr>
InChI=1S/C2H4N2O6/c5-3(6)9-1-2-10-4(7)8/h1-2H2

> <InChI Key_QSARr>
UQXKXGWGFRWILX-UHFFFAOYSA-N

> <Salt_Solvent>
?

> <WS Temperature>
20

> <WS Reference>
SEIDELL,A (1941)

> <dsstox_substance_id>
DTXSID6027264

> <LogMolar>
-1.3495

$$$$
629-06-1
  -INDIGO-01081615412D

 23 22  0  0  0  0  0  0  0  0999 V2000
    0.0001    0.0000    0.0000 C   0  0  0  0  0  0  0  0  0  0  0  0
   -1.5999    0.0000    0.0000 C   0  0  0  0  0  0  0  0  0  0  0  0
   -3.2000   -0.0000    0.0000 C   0  0  0  0  0  0  0  0  0  0  0  0
   -4.8000   -0.0000    0.0000 C   0  0  0  0  0  0  0  0  0  0  0  0
   -6.4000   -0.0000    0.0000 H   0  0  0  0  0  0  0  0  0  0  0  0
   -5.6000   -1.3856    0.0000 H   0  0  0  0  0  0  0  0  0  0  0  0
   -5.6000    1.3856    0.0000 H   0  0  0  0  0  0  0  0  0  0  0  0
   -3.2000    1.6000    0.0000 H   0  0  0  0  0  0  0  0  0  0  0  0
   -3.2000   -1.6000    0.0000 H   0  0  0  0  0  0  0  0  0  0  0  0
   -1.5999   -1.6000    0.0000 H   0  0  0  0  0  0  0  0  0  0  0  0
   -1.5999    1.6000    0.0000 H   0  0  0  0  0  0  0  0  0  0  0  0
    1.5999    0.0000    0.0000 C   0  0  0  0  0  0  0  0  0  0  0  0
    3.2000    0.0000    0.0000 C   0  0  0  0  0  0  0  0  0  0  0  0
    4.8000    0.0000    0.0000 C   0  0  0  0  0  0  0  0  0  0  0  0
    6.4000    0.0000    0.0000 Cl  0  0  0  0  0  0  0  0  0  0  0  0
    5.6000   -1.3856    0.0000 H   0  0  0  0  0  0  0  0  0  0  0  0
    5.6000    1.3856    0.0000 H   0  0  0  0  0  0  0  0  0  0  0  0
    3.2000   -1.6000    0.0000 H   0  0  0  0  0  0  0  0  0  0  0  0
    3.2000    1.6000    0.0000 H   0  0  0  0  0  0  0  0  0  0  0  0
    1.5999   -1.6000    0.0000 H   0  0  0  0  0  0  0  0  0  0  0  0
    1.5999    1.6000    0.0000 H   0  0  0  0  0  0  0  0  0  0  0  0
    0.0001    1.6000    0.0000 H   0  0  0  0  0  0  0  0  0  0  0  0
    0.0001   -1.6000    0.0000 H   0  0  0  0  0  0  0  0  0  0  0  0
  1  2  1  0  0  0  0
  2  3  1  0  0  0  0
  3  4  1  0  0  0  0
  4  5  1  0  0  0  0
  4  6  1  0  0  0  0
  4  7  1  0  0  0  0
  3  8  1  0  0  0  0
  3  9  1  0  0  0  0
  2 10  1  0  0  0  0
  2 11  1  0  0  0  0
  1 12  1  0  0  0  0
 12 13  1  0  0  0  0
 13 14  1  0  0  0  0
 14 15  1  0  0  0  0
 14 16  1  0  0  0  0
 14 17  1  0  0  0  0
 13 18  1  0  0  0  0
 13 19  1  0  0  0  0
 12 20  1  0  0  0  0
 12 21  1  0  0  0  0
  1 22  1  0  0  0  0
  1 23  1  0  0  0  0
M  END
> <CAS>
629-06-1

> <NAME>
1-CHLOROHEPTANE

> <preferred_name>
Heptane, 1-chloro-

> <iupac>
1-CHLOROHEPTANE

> <SMILES>
CCCCCCCCl

> <Canonical_QSARr>
CCCCCCCCl

> <InChI_Code_QSARr>
InChI=1S/C7H15Cl/c1-2-3-4-5-6-7-8/h2-7H2,1H3

> <InChI Key_QSARr>
DZMDPHNGKBEVRE-UHFFFAOYSA-N

> <Salt_Solvent>
?

> <WS Temperature>
25

> <WS Reference>
YALKOWSKY,SH & DANNENFELSER,RM (1992)

> <dsstox_substance_id>
DTXSID4060864

> <LogMolar>
-3.9957

$$$$
629-62-9
  -INDIGO-01081615412D

 47 46  0  0  0  0  0  0  0  0999 V2000
   11.2000    0.0000    0.0000 C   0  0  0  0  0  0  0  0  0  0  0  0
    9.6000    0.0000    0.0000 C   0  0  0  0  0  0  0  0  0  0  0  0
    7.9999    0.0000    0.0000 C   0  0  0  0  0  0  0  0  0  0  0  0
    6.3999    0.0000    0.0000 C   0  0  0  0  0  0  0  0  0  0  0  0
    4.7999    0.0000    0.0000 C   0  0  0  0  0  0  0  0  0  0  0  0
    3.1999    0.0000    0.0000 C   0  0  0  0  0  0  0  0  0  0  0  0
    1.5998    0.0000    0.0000 C   0  0  0  0  0  0  0  0  0  0  0  0
    0.0002    0.0000    0.0000 C   0  0  0  0  0  0  0  0  0  0  0  0
   -1.5998    0.0000    0.0000 C   0  0  0  0  0  0  0  0  0  0  0  0
   -3.1999    0.0000    0.0000 C   0  0  0  0  0  0  0  0  0  0  0  0
   -4.7999   -0.0000    0.0000 C   0  0  0  0  0  0  0  0  0  0  0  0
   -6.3999   -0.0000    0.0000 C   0  0  0  0  0  0  0  0  0  0  0  0
   -7.9999   -0.0000    0.0000 C   0  0  0  0  0  0  0  0  0  0  0  0
   -9.6000   -0.0000    0.0000 C   0  0  0  0  0  0  0  0  0  0  0  0
  -11.2000   -0.0000    0.0000 C   0  0  0  0  0  0  0  0  0  0  0  0
  -12.8000   -0.0000    0.0000 H   0  0  0  0  0  0  0  0  0  0  0  0
  -12.0000   -1.3856    0.0000 H   0  0  0  0  0  0  0  0  0  0  0  0
  -12.0000    1.3856    0.0000 H   0  0  0  0  0  0  0  0  0  0  0  0
   -9.6000   -1.6000    0.0000 H   0  0  0  0  0  0  0  0  0  0  0  0
   -9.6000    1.6000    0.0000 H   0  0  0  0  0  0  0  0  0  0  0  0
   -7.9999   -1.6000    0.0000 H   0  0  0  0  0  0  0  0  0  0  0  0
   -7.9999    1.6000    0.0000 H   0  0  0  0  0  0  0  0  0  0  0  0
   -6.3999   -1.6000    0.0000 H   0  0  0  0  0  0  0  0  0  0  0  0
   -6.3999    1.6000    0.0000 H   0  0  0  0  0  0  0  0  0  0  0  0
   -4.7999   -1.6000    0.0000 H   0  0  0  0  0  0  0  0  0  0  0  0
   -4.7999    1.6000    0.0000 H   0  0  0  0  0  0  0  0  0  0  0  0
   -3.1999    1.6000    0.0000 H   0  0  0  0  0  0  0  0  0  0  0  0
   -3.1999   -1.6000    0.0000 H   0  0  0  0  0  0  0  0  0  0  0  0
   -1.5998   -1.6000    0.0000 H   0  0  0  0  0  0  0  0  0  0  0  0
   -1.5998    1.6000    0.0000 H   0  0  0  0  0  0  0  0  0  0  0  0
    0.0002    1.6000    0.0000 H   0  0  0  0  0  0  0  0  0  0  0  0
    0.0002   -1.6000    0.0000 H   0  0  0  0  0  0  0  0  0  0  0  0
    1.5998   -1.6000    0.0000 H   0  0  0  0  0  0  0  0  0  0  0  0
    1.5998    1.6000    0.0000 H   0  0  0  0  0  0  0  0  0  0  0  0
    3.1999   -1.6000    0.0000 H   0  0  0  0  0  0  0  0  0  0  0  0
    3.1999    1.6000    0.0000 H   0  0  0  0  0  0  0  0  0  0  0  0
    4.7999   -1.6000    0.0000 H   0  0  0  0  0  0  0  0  0  0  0  0
    4.7999    1.6000    0.0000 H   0  0  0  0  0  0  0  0  0  0  0  0
    6.3999   -1.6000    0.0000 H   0  0  0  0  0  0  0  0  0  0  0  0
    6.3999    1.6000    0.0000 H   0  0  0  0  0  0  0  0  0  0  0  0
    7.9999   -1.6000    0.0000 H   0  0  0  0  0  0  0  0  0  0  0  0
    7.9999    1.6000    0.0000 H   0  0  0  0  0  0  0  0  0  0  0  0
    9.6000   -1.6000    0.0000 H   0  0  0  0  0  0  0  0  0  0  0  0
    9.6000    1.6000    0.0000 H   0  0  0  0  0  0  0  0  0  0  0  0
   12.8000    0.0000    0.0000 H   0  0  0  0  0  0  0  0  0  0  0  0
   12.0000    1.3856    0.0000 H   0  0  0  0  0  0  0  0  0  0  0  0
   12.0000   -1.3856    0.0000 H   0  0  0  0  0  0  0  0  0  0  0  0
  1  2  1  0  0  0  0
  2  3  1  0  0  0  0
  3  4  1  0  0  0  0
  4  5  1  0  0  0  0
  5  6  1  0  0  0  0
  6  7  1  0  0  0  0
  7  8  1  0  0  0  0
  8  9  1  0  0  0  0
  9 10  1  0  0  0  0
 10 11  1  0  0  0  0
 11 12  1  0  0  0  0
 12 13  1  0  0  0  0
 13 14  1  0  0  0  0
 14 15  1  0  0  0  0
 15 16  1  0  0  0  0
 15 17  1  0  0  0  0
 15 18  1  0  0  0  0
 14 19  1  0  0  0  0
 14 20  1  0  0  0  0
 13 21  1  0  0  0  0
 13 22  1  0  0  0  0
 12 23  1  0  0  0  0
 12 24  1  0  0  0  0
 11 25  1  0  0  0  0
 11 26  1  0  0  0  0
 10 27  1  0  0  0  0
 10 28  1  0  0  0  0
  9 29  1  0  0  0  0
  9 30  1  0  0  0  0
  8 31  1  0  0  0  0
  8 32  1  0  0  0  0
  7 33  1  0  0  0  0
  7 34  1  0  0  0  0
  6 35  1  0  0  0  0
  6 36  1  0  0  0  0
  5 37  1  0  0  0  0
  5 38  1  0  0  0  0
  4 39  1  0  0  0  0
  4 40  1  0  0  0  0
  3 41  1  0  0  0  0
  3 42  1  0  0  0  0
  2 43  1  0  0  0  0
  2 44  1  0  0  0  0
  1 45  1  0  0  0  0
  1 46  1  0  0  0  0
  1 47  1  0  0  0  0
M  END
> <CAS>
629-62-9

> <NAME>
N-PENTADECANE

> <preferred_name>
Pentadecane

> <iupac>
pentadecane

> <SMILES>
CCCCCCCCCCCCCCC

> <Canonical_QSARr>
CCCCCCCCCCCCCCC

> <InChI_Code_QSARr>
InChI=1S/C15H32/c1-3-5-7-9-11-13-15-14-12-10-8-6-4-2/h3-15H2,1-2H3

> <InChI Key_QSARr>
YCOZIPAWZNQLMR-UHFFFAOYSA-N

> <Salt_Solvent>
?

> <WS Temperature>
25

> <WS Reference>
COATES,M ET AL. (1985)

> <dsstox_substance_id>
DTXSID6027268

> <LogMolar>
-9.4464

$$$$
630-20-6
  -INDIGO-01081615412D

  8  7  0  0  0  0  0  0  0  0999 V2000
   -0.8000    1.3856    0.0000 Cl  0  0  0  0  0  0  0  0  0  0  0  0
    0.0000    0.0000    0.0000 C   0  0  0  0  0  0  0  0  0  0  0  0
   -1.6000   -0.0000    0.0000 Cl  0  0  0  0  0  0  0  0  0  0  0  0
   -0.8000   -1.3856    0.0000 Cl  0  0  0  0  0  0  0  0  0  0  0  0
    1.6000    0.0000    0.0000 C   0  0  0  0  0  0  0  0  0  0  0  0
    3.2000    0.0000    0.0000 Cl  0  0  0  0  0  0  0  0  0  0  0  0
    2.4000   -1.3856    0.0000 H   0  0  0  0  0  0  0  0  0  0  0  0
    2.4000    1.3856    0.0000 H   0  0  0  0  0  0  0  0  0  0  0  0
  1  2  1  0  0  0  0
  2  3  1  0  0  0  0
  2  4  1  0  0  0  0
  2  5  1  0  0  0  0
  5  6  1  0  0  0  0
  5  7  1  0  0  0  0
  5  8  1  0  0  0  0
M  END
> <CAS>
630-20-6

> <NAME>
1,1,1,2-TETRACHLOROETHANE

> <preferred_name>
1,1,1,2-Tetrachloroethane

> <iupac>
1,1,1,2-tetrachloroethane

> <SMILES>
ClCC(Cl)(Cl)Cl

> <Canonical_QSARr>
ClCC(Cl)(Cl)Cl

> <InChI_Code_QSARr>
InChI=1S/C2H2Cl4/c3-1-2(4,5)6/h1H2

> <InChI Key_QSARr>
QVLAWKAXOMEXPM-UHFFFAOYSA-N

> <Salt_Solvent>
?

> <WS Temperature>
25

> <WS Reference>
HORVATH,AL ET AL. (1999)

> <dsstox_substance_id>
DTXSID2021317

> <LogMolar>
-2.1955

$$$$
631-36-7
  -INDIGO-01081615412D

 29 28  0  0  0  0  0  0  0  0999 V2000
    0.0001   -0.0000    0.0000 Si  0  0  0  0  0  0  0  0  0  0  0  0
   -1.2257    1.0285    0.0000 C   0  0  0  0  0  0  0  0  0  0  0  0
   -2.4514    2.0569    0.0000 C   0  0  0  0  0  0  0  0  0  0  0  0
   -3.6770    3.0854    0.0000 H   0  0  0  0  0  0  0  0  0  0  0  0
   -2.1734    3.6326    0.0000 H   0  0  0  0  0  0  0  0  0  0  0  0
   -3.9548    1.5097    0.0000 H   0  0  0  0  0  0  0  0  0  0  0  0
   -0.1972    2.2541    0.0000 H   0  0  0  0  0  0  0  0  0  0  0  0
   -2.1856    0.5856    0.0000 H   0  0  0  0  0  0  0  0  0  0  0  0
    1.3856    0.8000    0.0000 C   0  0  0  0  0  0  0  0  0  0  0  0
    2.7713    1.6000    0.0000 C   0  0  0  0  0  0  0  0  0  0  0  0
    4.1569    2.4000    0.0000 H   0  0  0  0  0  0  0  0  0  0  0  0
    2.7713    3.2000    0.0000 H   0  0  0  0  0  0  0  0  0  0  0  0
    4.1569    0.8000    0.0000 H   0  0  0  0  0  0  0  0  0  0  0  0
    0.8384    2.3035    0.0000 H   0  0  0  0  0  0  0  0  0  0  0  0
    2.7713   -0.0000    0.0000 H   0  0  0  0  0  0  0  0  0  0  0  0
   -1.3856   -0.8000    0.0000 C   0  0  0  0  0  0  0  0  0  0  0  0
   -2.7712   -1.6000    0.0000 C   0  0  0  0  0  0  0  0  0  0  0  0
   -4.1569   -2.4000    0.0000 H   0  0  0  0  0  0  0  0  0  0  0  0
   -2.7712   -3.2000    0.0000 H   0  0  0  0  0  0  0  0  0  0  0  0
   -4.1569   -0.8000    0.0000 H   0  0  0  0  0  0  0  0  0  0  0  0
   -2.2541   -0.1972    0.0000 H   0  0  0  0  0  0  0  0  0  0  0  0
   -1.1078   -2.3757    0.0000 H   0  0  0  0  0  0  0  0  0  0  0  0
    0.3200   -0.5543    0.0000 C   0  0  0  0  0  0  0  0  0  0  0  0
    1.1200   -1.9399    0.0000 C   0  0  0  0  0  0  0  0  0  0  0  0
    1.9200   -3.3255    0.0000 H   0  0  0  0  0  0  0  0  0  0  0  0
    2.7200   -1.9399    0.0000 H   0  0  0  0  0  0  0  0  0  0  0  0
    0.3200   -3.3255    0.0000 H   0  0  0  0  0  0  0  0  0  0  0  0
    1.8236   -0.0071    0.0000 H   0  0  0  0  0  0  0  0  0  0  0  0
   -0.9057   -1.5827    0.0000 H   0  0  0  0  0  0  0  0  0  0  0  0
  1  2  1  0  0  0  0
  2  3  1  0  0  0  0
  3  4  1  0  0  0  0
  3  5  1  0  0  0  0
  3  6  1  0  0  0  0
  2  7  1  0  0  0  0
  2  8  1  0  0  0  0
  1  9  1  0  0  0  0
  9 10  1  0  0  0  0
 10 11  1  0  0  0  0
 10 12  1  0  0  0  0
 10 13  1  0  0  0  0
  9 14  1  0  0  0  0
  9 15  1  0  0  0  0
  1 16  1  0  0  0  0
 16 17  1  0  0  0  0
 17 18  1  0  0  0  0
 17 19  1  0  0  0  0
 17 20  1  0  0  0  0
 16 21  1  0  0  0  0
 16 22  1  0  0  0  0
  1 23  1  0  0  0  0
 23 24  1  0  0  0  0
 24 25  1  0  0  0  0
 24 26  1  0  0  0  0
 24 27  1  0  0  0  0
 23 28  1  0  0  0  0
 23 29  1  0  0  0  0
M  END
> <CAS>
631-36-7

> <NAME>
TETRAETHYLSILANE

> <preferred_name>
Silane, tetraethyl-

> <iupac>
TETRAETHYLSILANE

> <SMILES>
CC[Si](CC)(CC)CC

> <Canonical_QSARr>
CC[Si](CC)(CC)CC

> <InChI_Code_QSARr>
InChI=1S/C8H20Si/c1-5-9(6-2,7-3)8-4/h5-8H2,1-4H3

> <InChI Key_QSARr>
VCZQFJFZMMALHB-UHFFFAOYSA-N

> <Salt_Solvent>
?

> <WS Temperature>
25

> <WS Reference>
RIDDICK,JA ET AL. (1986)

> <dsstox_substance_id>
DTXSID1060891

> <LogMolar>
-5.6475

$$$$
632-25-7
  -INDIGO-01081615412D

 19 19  0  0  0  0  0  0  0  0999 V2000
   -0.0000    0.0000    0.0000 C   0  0  0  0  0  0  0  0  0  0  0  0
   -0.7999    1.3856    0.0000 S   0  0  0  0  0  0  0  0  0  0  0  0
   -2.1856    0.5857    0.0000 O   0  0  0  0  0  0  0  0  0  0  0  0
    0.5856    2.1856    0.0000 O   0  0  0  0  0  0  0  0  0  0  0  0
   -1.6000    2.7713    0.0000 O   0  0  0  0  0  0  0  0  0  0  0  0
   -3.2000    2.7713    0.0000 H   0  0  0  0  0  0  0  0  0  0  0  0
   -0.7999   -1.3856    0.0000 C   0  0  0  0  0  0  0  0  0  0  0  0
   -2.3999   -1.3856    0.0000 H   0  0  0  0  0  0  0  0  0  0  0  0
   -0.0000   -2.7713    0.0000 C   0  0  0  0  0  0  0  0  0  0  0  0
   -0.7999   -4.1569    0.0000 H   0  0  0  0  0  0  0  0  0  0  0  0
    1.6000   -2.7713    0.0000 C   0  0  0  0  0  0  0  0  0  0  0  0
    2.4001   -4.1569    0.0000 H   0  0  0  0  0  0  0  0  0  0  0  0
    2.4001   -1.3856    0.0000 C   0  0  0  0  0  0  0  0  0  0  0  0
    4.0001   -1.3856    0.0000 H   0  0  0  0  0  0  0  0  0  0  0  0
    1.6000    0.0000    0.0000 C   0  0  0  0  0  0  0  0  0  0  0  0
    2.4001    1.3856    0.0000 C   0  0  0  0  0  0  0  0  0  0  0  0
    1.6000    2.7713    0.0000 O   0  0  0  0  0  0  0  0  0  0  0  0
    4.0001    1.3856    0.0000 O   0  0  0  0  0  0  0  0  0  0  0  0
    4.8000    2.7713    0.0000 H   0  0  0  0  0  0  0  0  0  0  0  0
  1  2  1  0  0  0  0
  2  3  2  0  0  0  0
  2  4  2  0  0  0  0
  2  5  1  0  0  0  0
  5  6  1  0  0  0  0
  1  7  4  0  0  0  0
  7  8  1  0  0  0  0
  7  9  4  0  0  0  0
  9 10  1  0  0  0  0
  9 11  4  0  0  0  0
 11 12  1  0  0  0  0
 11 13  4  0  0  0  0
 13 14  1  0  0  0  0
 13 15  4  0  0  0  0
 15  1  4  0  0  0  0
 15 16  1  0  0  0  0
 16 17  2  0  0  0  0
 16 18  1  0  0  0  0
 18 19  1  0  0  0  0
M  END
> <CAS>
632-25-7

> <NAME>
BENZOIC ACID, 2-SULFO-

> <preferred_name>
Benzoic acid, 2-sulfo-

> <iupac>
2-Sulfobenzoic acid

> <SMILES>
OC(=O)c1ccccc1S(O)(=O)=O

> <Canonical_QSARr>
OC(=O)c1ccccc1S(O)(=O)=O

> <InChI_Code_QSARr>
InChI=1S/C7H6O5S/c8-7(9)5-3-1-2-4-6(5)13(10,11)12/h1-4H,(H,8,9)(H,10,11,12)

> <InChI Key_QSARr>
ZMPRRFPMMJQXPP-UHFFFAOYSA-N

> <Salt_Solvent>
?

> <WS Temperature>


> <WS Reference>
HEDOC

> <dsstox_substance_id>
DTXSID6060894

> <LogMolar>
0.3932

$$$$
635-65-4
  -INDIGO-01081615412D

 79 82  0  0  0  0  0  0  0  0999 V2000
    6.8871   -0.9710    0.0000 C   0  0  0  0  0  0  0  0  0  0  0  0
    7.1100   -2.5556    0.0000 C   0  0  0  0  0  0  0  0  0  0  0  0
    7.3324   -4.1399    0.0000 H   0  0  0  0  0  0  0  0  0  0  0  0
    8.5934   -3.1549    0.0000 H   0  0  0  0  0  0  0  0  0  0  0  0
    5.8490   -3.5406    0.0000 H   0  0  0  0  0  0  0  0  0  0  0  0
    8.0382    0.1404    0.0000 C   0  0  0  0  0  0  0  0  0  0  0  0
    9.6138   -0.1375    0.0000 C   0  0  0  0  0  0  0  0  0  0  0  0
   10.6422    1.0882    0.0000 C   0  0  0  0  0  0  0  0  0  0  0  0
   12.2179    0.8104    0.0000 H   0  0  0  0  0  0  0  0  0  0  0  0
   10.0949    2.5916    0.0000 H   0  0  0  0  0  0  0  0  0  0  0  0
   10.1611   -1.6410    0.0000 H   0  0  0  0  0  0  0  0  0  0  0  0
    7.3368    1.5785    0.0000 C   0  0  0  0  0  0  0  0  0  0  0  0
    8.0877    2.9910    0.0000 O   0  0  0  0  0  0  0  0  0  0  0  0
    5.7524    1.3556    0.0000 N   0  0  0  0  0  0  0  0  0  0  0  0
    4.6408    2.5067    0.0000 H   0  0  0  0  0  0  0  0  0  0  0  0
    5.4746   -0.2201    0.0000 C   0  0  0  0  0  0  0  0  0  0  0  0
    4.0364   -0.9213    0.0000 C   0  0  0  0  0  0  0  0  0  0  0  0
    2.5746   -0.2707    0.0000 C   0  0  0  0  0  0  0  0  0  0  0  0
    2.2418    1.2945    0.0000 N   0  0  0  1  0  0  0  0  0  0  0  0
    3.3125    2.4835    0.0000 H   0  0  0  0  0  0  0  0  0  0  0  0
    0.6510    1.4617    0.0000 C   0  0  0  0  0  0  0  0  0  0  0  0
   -0.1492    2.8473    0.0000 C   0  0  0  0  0  0  0  0  0  0  0  0
   -0.9493    4.2329    0.0000 C   0  0  0  0  0  0  0  0  0  0  0  0
   -2.5406    4.4002    0.0000 N   0  0  0  1  0  0  0  0  0  0  0  0
   -3.6109    3.2112    0.0000 H   0  0  0  0  0  0  0  0  0  0  0  0
   -2.8730    5.9653    0.0000 C   0  0  0  0  0  0  0  0  0  0  0  0
   -4.3347    6.6159    0.0000 C   0  0  0  0  0  0  0  0  0  0  0  0
   -5.7730    5.9147    0.0000 C   0  0  0  0  0  0  0  0  0  0  0  0
   -6.0508    4.3390    0.0000 N   0  0  0  0  0  0  0  0  0  0  0  0
   -4.9392    3.1879    0.0000 H   0  0  0  0  0  0  0  0  0  0  0  0
   -7.6351    4.1161    0.0000 C   0  0  0  0  0  0  0  0  0  0  0  0
   -8.3864    2.7036    0.0000 O   0  0  0  0  0  0  0  0  0  0  0  0
   -8.3365    5.5542    0.0000 C   0  0  0  0  0  0  0  0  0  0  0  0
   -9.9122    5.8321    0.0000 C   0  0  0  0  0  0  0  0  0  0  0  0
  -11.4879    6.1100    0.0000 H   0  0  0  0  0  0  0  0  0  0  0  0
  -10.9406    4.6064    0.0000 H   0  0  0  0  0  0  0  0  0  0  0  0
  -10.4595    7.3357    0.0000 H   0  0  0  0  0  0  0  0  0  0  0  0
   -7.1855    6.6657    0.0000 C   0  0  0  0  0  0  0  0  0  0  0  0
   -7.4083    8.2502    0.0000 C   0  0  0  0  0  0  0  0  0  0  0  0
   -8.7652    9.0982    0.0000 C   0  0  0  0  0  0  0  0  0  0  0  0
  -10.1777    8.3470    0.0000 H   0  0  0  0  0  0  0  0  0  0  0  0
   -8.7091   10.6971    0.0000 H   0  0  0  0  0  0  0  0  0  0  0  0
   -6.1474    9.2353    0.0000 H   0  0  0  0  0  0  0  0  0  0  0  0
   -4.5019    8.2073    0.0000 H   0  0  0  0  0  0  0  0  0  0  0  0
   -1.4876    6.7651    0.0000 C   0  0  0  0  0  0  0  0  0  0  0  0
   -1.3201    8.3565    0.0000 C   0  0  0  0  0  0  0  0  0  0  0  0
   -1.1530    9.9477    0.0000 H   0  0  0  0  0  0  0  0  0  0  0  0
   -2.6147    9.2969    0.0000 H   0  0  0  0  0  0  0  0  0  0  0  0
    0.1413    9.0072    0.0000 H   0  0  0  0  0  0  0  0  0  0  0  0
   -0.2986    5.6945    0.0000 C   0  0  0  0  0  0  0  0  0  0  0  0
    1.2666    6.0274    0.0000 C   0  0  0  0  0  0  0  0  0  0  0  0
    1.4894    7.6117    0.0000 C   0  0  0  0  0  0  0  0  0  0  0  0
    3.0883    7.6676    0.0000 C   0  0  0  0  0  0  0  0  0  0  0  0
    3.9362    6.3107    0.0000 O   0  0  0  0  0  0  0  0  0  0  0  0
    3.8396    9.0804    0.0000 O   0  0  0  0  0  0  0  0  0  0  0  0
    5.4384    9.1360    0.0000 H   0  0  0  0  0  0  0  0  0  0  0  0
   -0.0953    7.8344    0.0000 H   0  0  0  0  0  0  0  0  0  0  0  0
    1.7119    9.1960    0.0000 H   0  0  0  0  0  0  0  0  0  0  0  0
    2.8315    6.3600    0.0000 H   0  0  0  0  0  0  0  0  0  0  0  0
    2.1145    4.6705    0.0000 H   0  0  0  0  0  0  0  0  0  0  0  0
    1.2366    3.6474    0.0000 H   0  0  0  0  0  0  0  0  0  0  0  0
   -1.5350    2.0473    0.0000 H   0  0  0  0  0  0  0  0  0  0  0  0
   -0.0002    0.0001    0.0000 C   0  0  0  0  0  0  0  0  0  0  0  0
   -1.4836   -0.5994    0.0000 C   0  0  0  0  0  0  0  0  0  0  0  0
   -2.9670   -1.1987    0.0000 C   0  0  0  0  0  0  0  0  0  0  0  0
   -4.4505   -1.7982    0.0000 C   0  0  0  0  0  0  0  0  0  0  0  0
   -4.6733   -3.3826    0.0000 O   0  0  0  0  0  0  0  0  0  0  0  0
   -6.1568   -3.9818    0.0000 H   0  0  0  0  0  0  0  0  0  0  0  0
   -5.7115   -0.8130    0.0000 O   0  0  0  0  0  0  0  0  0  0  0  0
   -2.3677   -2.6822    0.0000 H   0  0  0  0  0  0  0  0  0  0  0  0
   -3.5664    0.2848    0.0000 H   0  0  0  0  0  0  0  0  0  0  0  0
   -0.8842   -2.0829    0.0000 H   0  0  0  0  0  0  0  0  0  0  0  0
   -2.0830    0.8841    0.0000 H   0  0  0  0  0  0  0  0  0  0  0  0
    1.1892   -1.0705    0.0000 C   0  0  0  0  0  0  0  0  0  0  0  0
    1.0217   -2.6619    0.0000 C   0  0  0  0  0  0  0  0  0  0  0  0
    0.8546   -4.2531    0.0000 H   0  0  0  0  0  0  0  0  0  0  0  0
    2.3164   -3.6022    0.0000 H   0  0  0  0  0  0  0  0  0  0  0  0
   -0.4400   -3.3125    0.0000 H   0  0  0  0  0  0  0  0  0  0  0  0
    4.2035   -2.5127    0.0000 H   0  0  0  0  0  0  0  0  0  0  0  0
  1  2  1  0  0  0  0
  2  3  1  0  0  0  0
  2  4  1  0  0  0  0
  2  5  1  0  0  0  0
  1  6  2  0  0  0  0
  6  7  1  0  0  0  0
  7  8  2  0  0  0  0
  8  9  1  0  0  0  0
  8 10  1  0  0  0  0
  7 11  1  0  0  0  0
  6 12  1  0  0  0  0
 12 13  2  0  0  0  0
 12 14  1  0  0  0  0
 14 15  1  0  0  0  0
 14 16  1  0  0  0  0
 16  1  1  0  0  0  0
 16 17  2  0  0  0  0
 17 18  1  0  0  0  0
 18 19  4  0  0  0  0
 19 20  1  0  0  0  0
 19 21  4  0  0  0  0
 21 22  1  0  0  0  0
 22 23  1  0  0  0  0
 23 24  4  0  0  0  0
 24 25  1  0  0  0  0
 24 26  4  0  0  0  0
 26 27  1  0  0  0  0
 27 28  2  0  0  0  0
 28 29  1  0  0  0  0
 29 30  1  0  0  0  0
 29 31  1  0  0  0  0
 31 32  2  0  0  0  0
 31 33  1  0  0  0  0
 33 34  1  0  0  0  0
 34 35  1  0  0  0  0
 34 36  1  0  0  0  0
 34 37  1  0  0  0  0
 33 38  2  0  0  0  0
 38 28  1  0  0  0  0
 38 39  1  0  0  0  0
 39 40  2  0  0  0  0
 40 41  1  0  0  0  0
 40 42  1  0  0  0  0
 39 43  1  0  0  0  0
 27 44  1  0  0  0  0
 26 45  4  0  0  0  0
 45 46  1  0  0  0  0
 46 47  1  0  0  0  0
 46 48  1  0  0  0  0
 46 49  1  0  0  0  0
 45 50  4  0  0  0  0
 50 23  4  0  0  0  0
 50 51  1  0  0  0  0
 51 52  1  0  0  0  0
 52 53  1  0  0  0  0
 53 54  2  0  0  0  0
 53 55  1  0  0  0  0
 55 56  1  0  0  0  0
 52 57  1  0  0  0  0
 52 58  1  0  0  0  0
 51 59  1  0  0  0  0
 51 60  1  0  0  0  0
 22 61  1  0  0  0  0
 22 62  1  0  0  0  0
 21 63  4  0  0  0  0
 63 64  1  0  0  0  0
 64 65  1  0  0  0  0
 65 66  1  0  0  0  0
 66 67  1  0  0  0  0
 67 68  1  0  0  0  0
 66 69  2  0  0  0  0
 65 70  1  0  0  0  0
 65 71  1  0  0  0  0
 64 72  1  0  0  0  0
 64 73  1  0  0  0  0
 63 74  4  0  0  0  0
 74 18  4  0  0  0  0
 74 75  1  0  0  0  0
 75 76  1  0  0  0  0
 75 77  1  0  0  0  0
 75 78  1  0  0  0  0
 17 79  1  0  0  0  0
M  END
> <CAS>
635-65-4

> <NAME>
Bilirubin

> <preferred_name>
Bilirubin

> <iupac>


> <SMILES>
CC1=C(C=C)C(=O)NC1=Cc1[nH]c(Cc2[nH]c(C=C3NC(=O)C(C)=C3C=C)c(C)c2CCC(O)=O)c(CCC(O)=O)c1C

> <Canonical_QSARr>
CC1=C(C=C)C(=O)NC1=Cc1[nH]c(Cc2[nH]c(C=C3NC(=O)C(C)=C3C=C)c(C)c2CCC(O)=O)c(CCC(O)=O)c1C

> <InChI_Code_QSARr>
InChI=1S/C33H36N4O6/c1-7-20-19(6)32(42)37-27(20)14-25-18(5)23(10-12-31(40)41)29(35-25)15-28-22(9-11-30(38)39)17(4)24(34-28)13-26-16(3)21(8-2)33(43)36-26/h7-8,13-14,34-35H,1-2,9-12,15H2,3-6H3,(H,36,43)(H,37,42)(H,38,39)(H,40,41)/b26-13-,27-14-

> <InChI Key_QSARr>
BPYKTIZUTYGOLE-IFADSCNNSA-N

> <Salt_Solvent>
?

> <WS Temperature>
25

> <WS Reference>
BEILSTEIN

> <dsstox_substance_id>
DTXSID8060905

> <LogMolar>
-4.8127

$$$$
636-46-4
  -INDIGO-01081615412D

 19 19  0  0  0  0  0  0  0  0999 V2000
   -4.1570    0.8000    0.0000 C   0  0  0  0  0  0  0  0  0  0  0  0
   -5.5426   -0.0000    0.0000 O   0  0  0  0  0  0  0  0  0  0  0  0
   -6.9282    0.8000    0.0000 H   0  0  0  0  0  0  0  0  0  0  0  0
   -4.1570    2.4000    0.0000 O   0  0  0  0  0  0  0  0  0  0  0  0
   -2.7713   -0.0000    0.0000 C   0  0  0  0  0  0  0  0  0  0  0  0
   -2.7713   -1.6000    0.0000 C   0  0  0  0  0  0  0  0  0  0  0  0
   -4.1570   -2.4000    0.0000 H   0  0  0  0  0  0  0  0  0  0  0  0
   -1.3856   -2.4000    0.0000 C   0  0  0  0  0  0  0  0  0  0  0  0
   -1.3856   -4.0000    0.0000 H   0  0  0  0  0  0  0  0  0  0  0  0
    0.0000   -1.6000    0.0000 C   0  0  0  0  0  0  0  0  0  0  0  0
    1.3857   -2.4000    0.0000 O   0  0  0  0  0  0  0  0  0  0  0  0
    1.3857   -4.0000    0.0000 H   0  0  0  0  0  0  0  0  0  0  0  0
    0.0000   -0.0000    0.0000 C   0  0  0  0  0  0  0  0  0  0  0  0
    1.3857    0.8000    0.0000 C   0  0  0  0  0  0  0  0  0  0  0  0
    1.3857    2.4000    0.0000 O   0  0  0  0  0  0  0  0  0  0  0  0
    2.7713    3.2000    0.0000 H   0  0  0  0  0  0  0  0  0  0  0  0
    2.7713   -0.0000    0.0000 O   0  0  0  0  0  0  0  0  0  0  0  0
   -1.3856    0.8000    0.0000 C   0  0  0  0  0  0  0  0  0  0  0  0
   -1.3856    2.4000    0.0000 H   0  0  0  0  0  0  0  0  0  0  0  0
  1  2  1  0  0  0  0
  2  3  1  0  0  0  0
  1  4  2  0  0  0  0
  1  5  1  0  0  0  0
  5  6  4  0  0  0  0
  6  7  1  0  0  0  0
  6  8  4  0  0  0  0
  8  9  1  0  0  0  0
  8 10  4  0  0  0  0
 10 11  1  0  0  0  0
 11 12  1  0  0  0  0
 10 13  4  0  0  0  0
 13 14  1  0  0  0  0
 14 15  1  0  0  0  0
 15 16  1  0  0  0  0
 14 17  2  0  0  0  0
 13 18  4  0  0  0  0
 18  5  4  0  0  0  0
 18 19  1  0  0  0  0
M  END
> <CAS>
636-46-4

> <NAME>
4-Hydroxyisophthalic acid

> <preferred_name>


> <iupac>


> <SMILES>
OC(=O)c1cc(ccc1O)C(O)=O

> <Canonical_QSARr>
OC(=O)c1cc(ccc1O)C(O)=O

> <InChI_Code_QSARr>
InChI=1S/C8H6O5/c9-6-2-1-4(7(10)11)3-5(6)8(12)13/h1-3,9H,(H,10,11)(H,12,13)

> <InChI Key_QSARr>
BCEQKAQCUWUNML-UHFFFAOYSA-N

> <Salt_Solvent>
?

> <WS Temperature>
24

> <WS Reference>
YALKOWSKY,SH & DANNENFELSER,RM (1992)

> <dsstox_substance_id>


> <LogMolar>
-2.7833

$$$$
637-78-5
  -INDIGO-01081615412D

 20 19  0  0  0  0  0  0  0  0999 V2000
    2.8256    1.0284    0.0000 C   0  0  0  0  0  0  0  0  0  0  0  0
    2.5478    2.6042    0.0000 O   0  0  0  0  0  0  0  0  0  0  0  0
    4.3292    0.4813    0.0000 C   0  0  0  0  0  0  0  0  0  0  0  0
    5.8327   -0.0660    0.0000 C   0  0  0  0  0  0  0  0  0  0  0  0
    7.3362   -0.6132    0.0000 H   0  0  0  0  0  0  0  0  0  0  0  0
    7.0584    0.9624    0.0000 H   0  0  0  0  0  0  0  0  0  0  0  0
    6.1105   -1.6417    0.0000 H   0  0  0  0  0  0  0  0  0  0  0  0
    4.8765    1.9847    0.0000 H   0  0  0  0  0  0  0  0  0  0  0  0
    3.7820   -1.0223    0.0000 H   0  0  0  0  0  0  0  0  0  0  0  0
    1.5999   -0.0000    0.0000 O   0  0  0  0  0  0  0  0  0  0  0  0
    0.0000   -0.0000    0.0000 C   0  0  0  0  0  0  0  0  0  0  0  0
   -0.2778    1.5757    0.0000 C   0  0  0  0  0  0  0  0  0  0  0  0
   -0.5557    3.1514    0.0000 H   0  0  0  0  0  0  0  0  0  0  0  0
   -1.7813    2.1229    0.0000 H   0  0  0  0  0  0  0  0  0  0  0  0
    0.9479    2.6042    0.0000 H   0  0  0  0  0  0  0  0  0  0  0  0
    0.0000   -1.6000    0.0000 C   0  0  0  0  0  0  0  0  0  0  0  0
    0.0000   -3.2000    0.0000 H   0  0  0  0  0  0  0  0  0  0  0  0
   -1.3857   -2.4000    0.0000 H   0  0  0  0  0  0  0  0  0  0  0  0
    1.3857   -2.4000    0.0000 H   0  0  0  0  0  0  0  0  0  0  0  0
   -1.6001   -0.0000    0.0000 H   0  0  0  0  0  0  0  0  0  0  0  0
  1  2  2  0  0  0  0
  1  3  1  0  0  0  0
  3  4  1  0  0  0  0
  4  5  1  0  0  0  0
  4  6  1  0  0  0  0
  4  7  1  0  0  0  0
  3  8  1  0  0  0  0
  3  9  1  0  0  0  0
  1 10  1  0  0  0  0
 10 11  1  0  0  0  0
 11 12  1  0  0  0  0
 12 13  1  0  0  0  0
 12 14  1  0  0  0  0
 12 15  1  0  0  0  0
 11 16  1  0  0  0  0
 16 17  1  0  0  0  0
 16 18  1  0  0  0  0
 16 19  1  0  0  0  0
 11 20  1  0  0  0  0
M  END
> <CAS>
637-78-5

> <NAME>
ISOPROPYL PROPIONATE

> <preferred_name>
Propanoic acid, 1-methylethyl ester

> <iupac>
propan-2-yl propanoate

> <SMILES>
CCC(=O)OC(C)C

> <Canonical_QSARr>
CCC(=O)OC(C)C

> <InChI_Code_QSARr>
InChI=1S/C6H12O2/c1-4-6(7)8-5(2)3/h5H,4H2,1-3H3

> <InChI Key_QSARr>
IJMWOMHMDSDKGK-UHFFFAOYSA-N

> <Salt_Solvent>
?

> <WS Temperature>
25

> <WS Reference>
SUZUKI,T (1991)

> <dsstox_substance_id>
DTXSID6060927

> <LogMolar>
-1.2906

$$$$
638-20-0
  -INDIGO-01081615412D

 18 17  0  0  0  0  0  0  0  0999 V2000
   -1.3857    2.4000    0.0000 O   0  0  0  0  0  0  0  0  0  0  0  0
   -1.3856    0.8000    0.0000 C   0  0  0  0  0  0  0  0  0  0  0  0
   -2.7712   -0.0000    0.0000 N   0  0  0  0  0  0  0  0  0  0  0  0
   -4.1569    0.8000    0.0000 C   0  0  0  0  0  0  0  0  0  0  0  0
   -5.5425   -0.0000    0.0000 C   0  0  0  0  0  0  0  0  0  0  0  0
   -6.9282   -0.8000    0.0000 H   0  0  0  0  0  0  0  0  0  0  0  0
   -6.9282    0.8000    0.0000 H   0  0  0  0  0  0  0  0  0  0  0  0
   -5.5425   -1.6000    0.0000 H   0  0  0  0  0  0  0  0  0  0  0  0
   -4.1569    2.4000    0.0000 O   0  0  0  0  0  0  0  0  0  0  0  0
   -2.7712   -1.6000    0.0000 H   0  0  0  0  0  0  0  0  0  0  0  0
   -0.0001   -0.0000    0.0000 N   0  0  0  0  0  0  0  0  0  0  0  0
    1.3856    0.8000    0.0000 C   0  0  0  0  0  0  0  0  0  0  0  0
    2.7713   -0.0000    0.0000 C   0  0  0  0  0  0  0  0  0  0  0  0
    4.1569   -0.8000    0.0000 H   0  0  0  0  0  0  0  0  0  0  0  0
    4.1569    0.8000    0.0000 H   0  0  0  0  0  0  0  0  0  0  0  0
    2.7713   -1.6000    0.0000 H   0  0  0  0  0  0  0  0  0  0  0  0
    1.3856    2.4000    0.0000 O   0  0  0  0  0  0  0  0  0  0  0  0
   -0.0001   -1.6000    0.0000 H   0  0  0  0  0  0  0  0  0  0  0  0
  1  2  2  0  0  0  0
  2  3  1  0  0  0  0
  3  4  1  0  0  0  0
  4  5  1  0  0  0  0
  5  6  1  0  0  0  0
  5  7  1  0  0  0  0
  5  8  1  0  0  0  0
  4  9  2  0  0  0  0
  3 10  1  0  0  0  0
  2 11  1  0  0  0  0
 11 12  1  0  0  0  0
 12 13  1  0  0  0  0
 13 14  1  0  0  0  0
 13 15  1  0  0  0  0
 13 16  1  0  0  0  0
 12 17  2  0  0  0  0
 11 18  1  0  0  0  0
M  END
> <CAS>
638-20-0

> <NAME>
1,3-DIACETYLUREA

> <preferred_name>
N,N'-Carbonylbis(acetamide)

> <iupac>
N-(acetylcarbamoyl)acetamide

> <SMILES>
CC(=O)NC(=O)NC(C)=O

> <Canonical_QSARr>
CC(=O)NC(=O)NC(C)=O

> <InChI_Code_QSARr>
InChI=1S/C5H8N2O3/c1-3(8)6-5(10)7-4(2)9/h1-2H3,(H2,6,7,8,9,10)

> <InChI Key_QSARr>
UJQLDFMZDSDZEY-UHFFFAOYSA-N

> <Salt_Solvent>
?

> <WS Temperature>
25

> <WS Reference>
BEILSTEIN

> <dsstox_substance_id>
DTXSID10213240

> <LogMolar>
-0.3137

$$$$
644-08-6
  -INDIGO-01081615412D

 25 26  0  0  0  0  0  0  0  0999 V2000
    0.7999    1.3856    0.0000 C   0  0  0  0  0  0  0  0  0  0  0  0
    0.0001    0.0000    0.0000 C   0  0  0  0  0  0  0  0  0  0  0  0
   -1.5999   -0.0000    0.0000 C   0  0  0  0  0  0  0  0  0  0  0  0
   -2.3999    1.3856    0.0000 C   0  0  0  0  0  0  0  0  0  0  0  0
   -1.5999    2.7713    0.0000 H   0  0  0  0  0  0  0  0  0  0  0  0
   -4.0000    1.3856    0.0000 C   0  0  0  0  0  0  0  0  0  0  0  0
   -4.8000    2.7713    0.0000 H   0  0  0  0  0  0  0  0  0  0  0  0
   -4.8000   -0.0000    0.0000 C   0  0  0  0  0  0  0  0  0  0  0  0
   -6.4000   -0.0000    0.0000 H   0  0  0  0  0  0  0  0  0  0  0  0
   -4.0000   -1.3856    0.0000 C   0  0  0  0  0  0  0  0  0  0  0  0
   -4.8000   -2.7713    0.0000 H   0  0  0  0  0  0  0  0  0  0  0  0
   -2.3999   -1.3856    0.0000 C   0  0  0  0  0  0  0  0  0  0  0  0
   -1.5999   -2.7713    0.0000 H   0  0  0  0  0  0  0  0  0  0  0  0
    0.7999   -1.3856    0.0000 C   0  0  0  0  0  0  0  0  0  0  0  0
    0.0001   -2.7713    0.0000 H   0  0  0  0  0  0  0  0  0  0  0  0
    2.3999   -1.3856    0.0000 C   0  0  0  0  0  0  0  0  0  0  0  0
    3.2000   -2.7713    0.0000 H   0  0  0  0  0  0  0  0  0  0  0  0
    3.2000    0.0000    0.0000 C   0  0  0  0  0  0  0  0  0  0  0  0
    4.8000    0.0000    0.0000 C   0  0  0  0  0  0  0  0  0  0  0  0
    6.4000    0.0000    0.0000 H   0  0  0  0  0  0  0  0  0  0  0  0
    5.6000    1.3856    0.0000 H   0  0  0  0  0  0  0  0  0  0  0  0
    5.6000   -1.3856    0.0000 H   0  0  0  0  0  0  0  0  0  0  0  0
    2.3999    1.3856    0.0000 C   0  0  0  0  0  0  0  0  0  0  0  0
    3.2000    2.7713    0.0000 H   0  0  0  0  0  0  0  0  0  0  0  0
   -0.0001    2.7713    0.0000 H   0  0  0  0  0  0  0  0  0  0  0  0
  1  2  4  0  0  0  0
  2  3  1  0  0  0  0
  3  4  4  0  0  0  0
  4  5  1  0  0  0  0
  4  6  4  0  0  0  0
  6  7  1  0  0  0  0
  6  8  4  0  0  0  0
  8  9  1  0  0  0  0
  8 10  4  0  0  0  0
 10 11  1  0  0  0  0
 10 12  4  0  0  0  0
 12  3  4  0  0  0  0
 12 13  1  0  0  0  0
  2 14  4  0  0  0  0
 14 15  1  0  0  0  0
 14 16  4  0  0  0  0
 16 17  1  0  0  0  0
 16 18  4  0  0  0  0
 18 19  1  0  0  0  0
 19 20  1  0  0  0  0
 19 21  1  0  0  0  0
 19 22  1  0  0  0  0
 18 23  4  0  0  0  0
 23  1  4  0  0  0  0
 23 24  1  0  0  0  0
  1 25  1  0  0  0  0
M  END
> <CAS>
644-08-6

> <NAME>
4-METHYL-1,1'-BIPHENYL

> <preferred_name>
4-Phenyltoluene

> <iupac>
4-methylbiphenyl

> <SMILES>
Cc1ccc(cc1)-c1ccccc1

> <Canonical_QSARr>
Cc1ccc(cc1)-c1ccccc1

> <InChI_Code_QSARr>
InChI=1S/C13H12/c1-11-7-9-13(10-8-11)12-5-3-2-4-6-12/h2-10H,1H3

> <InChI Key_QSARr>
ZZLCFHIKESPLTH-UHFFFAOYSA-N

> <Salt_Solvent>
?

> <WS Temperature>
25

> <WS Reference>
YALKOWSKY,SH & DANNENFELSER,RM (1992)

> <dsstox_substance_id>
DTXSID4047177

> <LogMolar>
-4.6185

$$$$
645-56-7
  -INDIGO-01081615412D

 22 22  0  0  0  0  0  0  0  0999 V2000
    6.4000    0.0000    0.0000 O   0  0  0  0  0  0  0  0  0  0  0  0
    4.8000    0.0000    0.0000 C   0  0  0  0  0  0  0  0  0  0  0  0
    4.0000    1.3856    0.0000 C   0  0  0  0  0  0  0  0  0  0  0  0
    4.8000    2.7713    0.0000 H   0  0  0  0  0  0  0  0  0  0  0  0
    2.4000    1.3856    0.0000 C   0  0  0  0  0  0  0  0  0  0  0  0
    1.6000    2.7713    0.0000 H   0  0  0  0  0  0  0  0  0  0  0  0
    1.6000   -0.0000    0.0000 C   0  0  0  0  0  0  0  0  0  0  0  0
    0.0000   -0.0000    0.0000 C   0  0  0  0  0  0  0  0  0  0  0  0
   -1.6000   -0.0000    0.0000 C   0  0  0  0  0  0  0  0  0  0  0  0
   -3.2000   -0.0000    0.0000 C   0  0  0  0  0  0  0  0  0  0  0  0
   -4.8000   -0.0000    0.0000 H   0  0  0  0  0  0  0  0  0  0  0  0
   -4.0000    1.3856    0.0000 H   0  0  0  0  0  0  0  0  0  0  0  0
   -4.0000   -1.3856    0.0000 H   0  0  0  0  0  0  0  0  0  0  0  0
   -1.6000    1.6000    0.0000 H   0  0  0  0  0  0  0  0  0  0  0  0
   -1.6000   -1.6000    0.0000 H   0  0  0  0  0  0  0  0  0  0  0  0
    0.0000    1.6000    0.0000 H   0  0  0  0  0  0  0  0  0  0  0  0
    0.0000   -1.6000    0.0000 H   0  0  0  0  0  0  0  0  0  0  0  0
    2.4000   -1.3856    0.0000 C   0  0  0  0  0  0  0  0  0  0  0  0
    1.6000   -2.7713    0.0000 H   0  0  0  0  0  0  0  0  0  0  0  0
    4.0000   -1.3856    0.0000 C   0  0  0  0  0  0  0  0  0  0  0  0
    4.8000   -2.7713    0.0000 H   0  0  0  0  0  0  0  0  0  0  0  0
    7.2000   -1.3856    0.0000 H   0  0  0  0  0  0  0  0  0  0  0  0
  1  2  1  0  0  0  0
  2  3  4  0  0  0  0
  3  4  1  0  0  0  0
  3  5  4  0  0  0  0
  5  6  1  0  0  0  0
  5  7  4  0  0  0  0
  7  8  1  0  0  0  0
  8  9  1  0  0  0  0
  9 10  1  0  0  0  0
 10 11  1  0  0  0  0
 10 12  1  0  0  0  0
 10 13  1  0  0  0  0
  9 14  1  0  0  0  0
  9 15  1  0  0  0  0
  8 16  1  0  0  0  0
  8 17  1  0  0  0  0
  7 18  4  0  0  0  0
 18 19  1  0  0  0  0
 18 20  4  0  0  0  0
 20  2  4  0  0  0  0
 20 21  1  0  0  0  0
  1 22  1  0  0  0  0
M  END
> <CAS>
645-56-7

> <NAME>
4-PROPYLPHENOL

> <preferred_name>
4-Propylphenol

> <iupac>
4-propylphenol

> <SMILES>
CCCc1ccc(O)cc1

> <Canonical_QSARr>
CCCc1ccc(O)cc1

> <InChI_Code_QSARr>
InChI=1S/C9H12O/c1-2-3-8-4-6-9(10)7-5-8/h4-7,10H,2-3H2,1H3

> <InChI Key_QSARr>
KLSLBUSXWBJMEC-UHFFFAOYSA-N

> <Salt_Solvent>
?

> <WS Temperature>
25

> <WS Reference>
SHIU,WY ET AL. (1994)

> <dsstox_substance_id>
DTXSID9022100

> <LogMolar>
-2.0276

$$$$
646-06-0
  -INDIGO-01081615412D

 11 11  0  0  0  0  0  0  0  0999 V2000
    1.7323    1.9239    0.0000 O   0  0  0  0  0  0  0  0  0  0  0  0
    0.1672    1.5912    0.0000 C   0  0  0  0  0  0  0  0  0  0  0  0
    0.0000    3.1825    0.0000 H   0  0  0  0  0  0  0  0  0  0  0  0
   -1.4327    1.5912    0.0000 H   0  0  0  0  0  0  0  0  0  0  0  0
    0.0000   -0.0000    0.0000 C   0  0  0  0  0  0  0  0  0  0  0  0
   -1.5650    0.3326    0.0000 H   0  0  0  0  0  0  0  0  0  0  0  0
   -0.4944   -1.5217    0.0000 H   0  0  0  0  0  0  0  0  0  0  0  0
    1.4617   -0.6508    0.0000 O   0  0  0  0  0  0  0  0  0  0  0  0
    2.5323    0.5383    0.0000 C   0  0  0  0  0  0  0  0  0  0  0  0
    3.6029   -0.6508    0.0000 H   0  0  0  0  0  0  0  0  0  0  0  0
    3.8267    1.4787    0.0000 H   0  0  0  0  0  0  0  0  0  0  0  0
  1  2  1  0  0  0  0
  2  3  1  0  0  0  0
  2  4  1  0  0  0  0
  2  5  1  0  0  0  0
  5  6  1  0  0  0  0
  5  7  1  0  0  0  0
  5  8  1  0  0  0  0
  8  9  1  0  0  0  0
  9  1  1  0  0  0  0
  9 10  1  0  0  0  0
  9 11  1  0  0  0  0
M  END
> <CAS>
646-06-0

> <NAME>
1,3-DIOXALANE

> <preferred_name>
1,3-Dioxolane

> <iupac>
1,3-dioxolane

> <SMILES>
C1OCCO1

> <Canonical_QSARr>
C1OCCO1

> <InChI_Code_QSARr>
InChI=1S/C3H6O2/c1-2-5-3-4-1/h1-3H2

> <InChI Key_QSARr>
WNXJIVFYUVYPPR-UHFFFAOYSA-N

> <Salt_Solvent>
?

> <WS Temperature>
25

> <WS Reference>
RIDDICK,JA ET AL. (1986)

> <dsstox_substance_id>
DTXSID4027284

> <LogMolar>
1.1303

$$$$
672-15-1, 1927-25-9
  -INDIGO-01081615412D

 17 16  0  0  0  0  0  0  0  0999 V2000
   -1.6000   -0.0000    0.0000 C   0  0  0  0  0  0  0  0  0  0  0  0
   -2.4000   -1.3857    0.0000 O   0  0  0  0  0  0  0  0  0  0  0  0
   -4.0000   -1.3857    0.0000 H   0  0  0  0  0  0  0  0  0  0  0  0
   -0.0000   -0.0000    0.0000 C   0  0  0  0  0  0  0  0  0  0  0  0
    1.5756   -0.2779    0.0000 C   0  0  0  0  0  0  0  0  0  0  0  0
    3.1514   -0.5557    0.0000 C   0  0  0  0  0  0  0  0  0  0  0  0
    4.7271   -0.8335    0.0000 O   0  0  0  0  0  0  0  0  0  0  0  0
    5.2743   -2.3370    0.0000 H   0  0  0  0  0  0  0  0  0  0  0  0
    2.8736   -2.1314    0.0000 H   0  0  0  0  0  0  0  0  0  0  0  0
    3.4292    1.0200    0.0000 H   0  0  0  0  0  0  0  0  0  0  0  0
    1.2978   -1.8535    0.0000 H   0  0  0  0  0  0  0  0  0  0  0  0
    1.8536    1.2979    0.0000 H   0  0  0  0  0  0  0  0  0  0  0  0
   -0.0000    1.6000    0.0000 N   0  0  0  0  0  0  0  0  0  0  0  0
   -1.3856    2.4000    0.0000 H   0  0  0  0  0  0  0  0  0  0  0  0
    1.2257    2.6285    0.0000 H   0  0  0  0  0  0  0  0  0  0  0  0
   -0.0000   -1.6000    0.0000 H   0  0  0  0  0  0  0  0  0  0  0  0
   -2.4000    1.3856    0.0000 O   0  0  0  0  0  0  0  0  0  0  0  0
  1  2  1  0  0  0  0
  2  3  1  0  0  0  0
  1  4  1  0  0  0  0
  4  5  1  0  0  0  0
  5  6  1  0  0  0  0
  6  7  1  0  0  0  0
  7  8  1  0  0  0  0
  6  9  1  0  0  0  0
  6 10  1  0  0  0  0
  5 11  1  0  0  0  0
  5 12  1  0  0  0  0
  4 13  1  0  0  0  0
 13 14  1  0  0  0  0
 13 15  1  0  0  0  0
  4 16  1  0  0  0  0
  1 17  2  0  0  0  0
M  END
> <CAS>
672-15-1, 1927-25-9

> <NAME>
L-Homoserine, DL-Homoserine

> <preferred_name>
Homoserine

> <iupac>
(2S)-2-amino-4-hydroxybutanoic acid

> <SMILES>
N[C@@H](CCO)C(O)=O

> <Canonical_QSARr>
NC(CCO)C(O)=O

> <InChI_Code_QSARr>
InChI=1S/C4H9NO3/c5-3(1-2-6)4(7)8/h3,6H,1-2,5H2,(H,7,8)

> <InChI Key_QSARr>
UKAUYVFTDYCKQA-UHFFFAOYSA-N

> <Salt_Solvent>
?

> <WS Temperature>
30

> <WS Reference>
BEILSTEIN

> <dsstox_substance_id>
DTXSID5075159

> <LogMolar>
0.924

$$$$
683-57-8
  -INDIGO-01081615412D

  9  8  0  0  0  0  0  0  0  0999 V2000
    1.3857   -0.8000    0.0000 C   0  0  0  0  0  0  0  0  0  0  0  0
    0.0000    0.0000    0.0000 C   0  0  0  0  0  0  0  0  0  0  0  0
   -1.3856    0.8000    0.0000 Br  0  0  0  0  0  0  0  0  0  0  0  0
    0.0000    1.6000    0.0000 H   0  0  0  0  0  0  0  0  0  0  0  0
   -1.3856   -0.8000    0.0000 H   0  0  0  0  0  0  0  0  0  0  0  0
    2.7713    0.0000    0.0000 N   0  0  0  0  0  0  0  0  0  0  0  0
    4.1569   -0.8000    0.0000 H   0  0  0  0  0  0  0  0  0  0  0  0
    2.7713    1.6000    0.0000 H   0  0  0  0  0  0  0  0  0  0  0  0
    1.3856   -2.4000    0.0000 O   0  0  0  0  0  0  0  0  0  0  0  0
  1  2  1  0  0  0  0
  2  3  1  0  0  0  0
  2  4  1  0  0  0  0
  2  5  1  0  0  0  0
  1  6  1  0  0  0  0
  6  7  1  0  0  0  0
  6  8  1  0  0  0  0
  1  9  2  0  0  0  0
M  END
> <CAS>
683-57-8

> <NAME>
BROMOACETAMIDE

> <preferred_name>
Bromoacetamide

> <iupac>
2-bromoacetamide

> <SMILES>
NC(=O)CBr

> <Canonical_QSARr>
NC(=O)CBr

> <InChI_Code_QSARr>
InChI=1S/C2H4BrNO/c3-1-2(4)5/h1H2,(H2,4,5)

> <InChI Key_QSARr>
JUIKUQOUMZUFQT-UHFFFAOYSA-N

> <Salt_Solvent>
?

> <WS Temperature>
20

> <WS Reference>
BEILSTEIN

> <dsstox_substance_id>
DTXSID3058456

> <LogMolar>
0.0643

$$$$
686-14-6
  -INDIGO-01081615412D

 34 33  0  0  0  0  0  0  0  0999 V2000
   -0.5855   -2.1856    0.0000 C   0  0  0  0  0  0  0  0  0  0  0  0
   -1.3855   -0.8000    0.0000 C   0  0  0  0  0  0  0  0  0  0  0  0
    0.0001   -0.0000    0.0000 C   0  0  0  0  0  0  0  0  0  0  0  0
    1.3856    0.8001    0.0000 C   0  0  0  0  0  0  0  0  0  0  0  0
    2.7712    1.6000    0.0000 C   0  0  0  0  0  0  0  0  0  0  0  0
    4.1570    2.4000    0.0000 C   0  0  0  0  0  0  0  0  0  0  0  0
    5.5426    3.2000    0.0000 O   0  0  0  0  0  0  0  0  0  0  0  0
    6.9282    2.4000    0.0000 H   0  0  0  0  0  0  0  0  0  0  0  0
    3.6098    3.9034    0.0000 H   0  0  0  0  0  0  0  0  0  0  0  0
    4.9570    1.0143    0.0000 H   0  0  0  0  0  0  0  0  0  0  0  0
    1.9712    2.9857    0.0000 O   0  0  0  0  0  0  0  0  0  0  0  0
    2.5185    4.4891    0.0000 H   0  0  0  0  0  0  0  0  0  0  0  0
    3.5712    0.2144    0.0000 H   0  0  0  0  0  0  0  0  0  0  0  0
    2.1856   -0.5856    0.0000 O   0  0  0  0  0  0  0  0  0  0  0  0
    3.7612   -0.8634    0.0000 H   0  0  0  0  0  0  0  0  0  0  0  0
    0.5857    2.1856    0.0000 H   0  0  0  0  0  0  0  0  0  0  0  0
   -1.0285    1.2256    0.0000 O   0  0  0  0  0  0  0  0  0  0  0  0
   -0.4812    2.7292    0.0000 H   0  0  0  0  0  0  0  0  0  0  0  0
    0.8000   -1.3857    0.0000 H   0  0  0  0  0  0  0  0  0  0  0  0
   -2.7713   -1.6001    0.0000 N   0  0  0  0  0  0  0  0  0  0  0  0
   -4.1569   -0.8000    0.0000 C   0  0  0  0  0  0  0  0  0  0  0  0
   -5.5425   -1.6001    0.0000 O   0  0  0  0  0  0  0  0  0  0  0  0
   -6.9281   -0.8000    0.0000 C   0  0  0  0  0  0  0  0  0  0  0  0
   -8.3139   -0.0000    0.0000 C   0  0  0  0  0  0  0  0  0  0  0  0
   -9.6995    0.8001    0.0000 H   0  0  0  0  0  0  0  0  0  0  0  0
   -9.6995   -0.8000    0.0000 H   0  0  0  0  0  0  0  0  0  0  0  0
   -8.3139    1.6000    0.0000 H   0  0  0  0  0  0  0  0  0  0  0  0
   -7.7283   -2.1856    0.0000 H   0  0  0  0  0  0  0  0  0  0  0  0
   -6.1281    0.5857    0.0000 H   0  0  0  0  0  0  0  0  0  0  0  0
   -4.1569    0.8001    0.0000 O   0  0  0  0  0  0  0  0  0  0  0  0
   -2.7713   -3.2000    0.0000 H   0  0  0  0  0  0  0  0  0  0  0  0
   -2.1858    0.5857    0.0000 H   0  0  0  0  0  0  0  0  0  0  0  0
   -1.3855   -3.5713    0.0000 O   0  0  0  0  0  0  0  0  0  0  0  0
    0.9901   -2.4635    0.0000 H   0  0  0  0  0  0  0  0  0  0  0  0
  1  2  1  0  0  0  0
  2  3  1  0  0  0  0
  3  4  1  0  0  0  0
  4  5  1  0  0  0  0
  5  6  1  0  0  0  0
  6  7  1  0  0  0  0
  7  8  1  0  0  0  0
  6  9  1  0  0  0  0
  6 10  1  0  0  0  0
  5 11  1  0  0  0  0
 11 12  1  0  0  0  0
  5 13  1  0  0  0  0
  4 14  1  0  0  0  0
 14 15  1  0  0  0  0
  4 16  1  0  0  0  0
  3 17  1  0  0  0  0
 17 18  1  0  0  0  0
  3 19  1  0  0  0  0
  2 20  1  0  0  0  0
 20 21  1  0  0  0  0
 21 22  1  0  0  0  0
 22 23  1  0  0  0  0
 23 24  1  0  0  0  0
 24 25  1  0  0  0  0
 24 26  1  0  0  0  0
 24 27  1  0  0  0  0
 23 28  1  0  0  0  0
 23 29  1  0  0  0  0
 21 30  2  0  0  0  0
 20 31  1  0  0  0  0
  2 32  1  0  0  0  0
  1 33  2  0  0  0  0
  1 34  1  0  0  0  0
M  END
> <CAS>
686-14-6

> <NAME>
D-Glucose, 2-deoxy-2-[(ethoxycarbonyl)amino]-

> <preferred_name>


> <iupac>


> <SMILES>
CCOC(=O)N[C@@H](C=O)[C@@H](O)[C@H](O)[C@H](O)CO

> <Canonical_QSARr>
CCOC(=O)NC(C=O)C(O)C(O)C(O)CO

> <InChI_Code_QSARr>
InChI=1S/C9H17NO7/c1-2-17-9(16)10-5(3-11)7(14)8(15)6(13)4-12/h3,5-8,12-15H,2,4H2,1H3,(H,10,16)

> <InChI Key_QSARr>
HFLAZFSCYHSMQS-UHFFFAOYSA-N

> <Salt_Solvent>
?

> <WS Temperature>


> <WS Reference>
BEILSTEIN

> <dsstox_substance_id>


> <LogMolar>
0.1139

$$$$
693-21-0
  -INDIGO-01081615412D

 21 20  0  0  0  0  0  0  0  0999 V2000
    4.1570   -0.8000    0.0000 N   0  0  0  0  0  0  0  0  0  0  0  0
    5.5426   -1.6000    0.0000 O   0  0  0  0  0  0  0  0  0  0  0  0
    2.7713   -1.6000    0.0000 O   0  0  0  0  0  0  0  0  0  0  0  0
    1.3857   -0.8000    0.0000 C   0  0  0  0  0  0  0  0  0  0  0  0
    0.0000    0.0000    0.0000 C   0  0  0  0  0  0  0  0  0  0  0  0
   -1.3855    0.8000    0.0000 O   0  0  0  0  0  0  0  0  0  0  0  0
   -2.7713    0.0000    0.0000 C   0  0  0  0  0  0  0  0  0  0  0  0
   -4.1568   -0.8000    0.0000 C   0  0  0  0  0  0  0  0  0  0  0  0
   -5.5426   -1.6000    0.0000 O   0  0  0  0  0  0  0  0  0  0  0  0
   -6.9281   -0.8000    0.0000 N   0  0  0  0  0  0  0  0  0  0  0  0
   -8.3138   -1.6000    0.0000 O   0  0  0  0  0  0  0  0  0  0  0  0
   -6.9281    0.8000    0.0000 O   0  0  0  0  0  0  0  0  0  0  0  0
   -4.9569    0.5857    0.0000 H   0  0  0  0  0  0  0  0  0  0  0  0
   -3.3570   -2.1856    0.0000 H   0  0  0  0  0  0  0  0  0  0  0  0
   -3.5714    1.3856    0.0000 H   0  0  0  0  0  0  0  0  0  0  0  0
   -1.9712   -1.3857    0.0000 H   0  0  0  0  0  0  0  0  0  0  0  0
    0.8001    1.3856    0.0000 H   0  0  0  0  0  0  0  0  0  0  0  0
   -0.8001   -1.3857    0.0000 H   0  0  0  0  0  0  0  0  0  0  0  0
    0.5857   -2.1856    0.0000 H   0  0  0  0  0  0  0  0  0  0  0  0
    2.1856    0.5857    0.0000 H   0  0  0  0  0  0  0  0  0  0  0  0
    4.1570    0.8000    0.0000 O   0  0  0  0  0  0  0  0  0  0  0  0
  1  2  1  0  0  0  0
  1  3  1  0  0  0  0
  3  4  1  0  0  0  0
  4  5  1  0  0  0  0
  5  6  1  0  0  0  0
  6  7  1  0  0  0  0
  7  8  1  0  0  0  0
  8  9  1  0  0  0  0
  9 10  1  0  0  0  0
 10 11  2  0  0  0  0
 10 12  1  0  0  0  0
  8 13  1  0  0  0  0
  8 14  1  0  0  0  0
  7 15  1  0  0  0  0
  7 16  1  0  0  0  0
  5 17  1  0  0  0  0
  5 18  1  0  0  0  0
  4 19  1  0  0  0  0
  4 20  1  0  0  0  0
  1 21  2  0  0  0  0
M  CHG  4   1   1   2  -1  10   1  12  -1
M  END
> <CAS>
693-21-0

> <NAME>
DIETHYLENE DIGLYCOL, DINITRATE

> <preferred_name>
Diethylene glycol dinitrate

> <iupac>
oxydiethane-2,1-diyl dinitrate

> <SMILES>
[O-][N+](=O)OCCOCCO[N+]([O-])=O

> <Canonical_QSARr>
[O-][N+](=O)OCCOCCO[N+]([O-])=O

> <InChI_Code_QSARr>
InChI=1S/C4H8N2O7/c7-5(8)12-3-1-11-2-4-13-6(9)10/h1-4H2

> <InChI Key_QSARr>
LYAGTVMJGHTIDH-UHFFFAOYSA-N

> <Salt_Solvent>
?

> <WS Temperature>
25

> <WS Reference>
HAAG,WR ET AL. (1991)

> <dsstox_substance_id>
DTXSID1024047

> <LogMolar>
-1.7015

$$$$
694-80-4
  -INDIGO-01081615412D

 12 12  0  0  0  0  0  0  0  0999 V2000
    0.0000   -0.0000    0.0000 C   0  0  0  0  0  0  0  0  0  0  0  0
   -0.8000    1.3856    0.0000 Cl  0  0  0  0  0  0  0  0  0  0  0  0
   -0.8000   -1.3857    0.0000 C   0  0  0  0  0  0  0  0  0  0  0  0
   -2.4000   -1.3857    0.0000 Br  0  0  0  0  0  0  0  0  0  0  0  0
    0.0000   -2.7713    0.0000 C   0  0  0  0  0  0  0  0  0  0  0  0
   -0.8000   -4.1569    0.0000 H   0  0  0  0  0  0  0  0  0  0  0  0
    1.6000   -2.7713    0.0000 C   0  0  0  0  0  0  0  0  0  0  0  0
    2.4000   -4.1569    0.0000 H   0  0  0  0  0  0  0  0  0  0  0  0
    2.4000   -1.3857    0.0000 C   0  0  0  0  0  0  0  0  0  0  0  0
    4.0000   -1.3857    0.0000 H   0  0  0  0  0  0  0  0  0  0  0  0
    1.6000   -0.0000    0.0000 C   0  0  0  0  0  0  0  0  0  0  0  0
    2.4000    1.3856    0.0000 H   0  0  0  0  0  0  0  0  0  0  0  0
  1  2  1  0  0  0  0
  1  3  4  0  0  0  0
  3  4  1  0  0  0  0
  3  5  4  0  0  0  0
  5  6  1  0  0  0  0
  5  7  4  0  0  0  0
  7  8  1  0  0  0  0
  7  9  4  0  0  0  0
  9 10  1  0  0  0  0
  9 11  4  0  0  0  0
 11  1  4  0  0  0  0
 11 12  1  0  0  0  0
M  END
> <CAS>
694-80-4

> <NAME>
2-BROMOCHLOROBENZENE

> <preferred_name>


> <iupac>


> <SMILES>
Clc1ccccc1Br

> <Canonical_QSARr>
Clc1ccccc1Br

> <InChI_Code_QSARr>
InChI=1S/C6H4BrCl/c7-5-3-1-2-4-6(5)8/h1-4H

> <InChI Key_QSARr>
QBELEDRHMPMKHP-UHFFFAOYSA-N

> <Salt_Solvent>
?

> <WS Temperature>
25

> <WS Reference>
SUZUKI,T (1991)

> <dsstox_substance_id>


> <LogMolar>
-3.4165

$$$$
697-82-5
  -INDIGO-01081615412D

 22 22  0  0  0  0  0  0  0  0999 V2000
   -1.3857    0.8000    0.0000 C   0  0  0  0  0  0  0  0  0  0  0  0
   -2.7713   -0.0000    0.0000 C   0  0  0  0  0  0  0  0  0  0  0  0
   -4.1570    0.8000    0.0000 H   0  0  0  0  0  0  0  0  0  0  0  0
   -2.7713   -1.6000    0.0000 C   0  0  0  0  0  0  0  0  0  0  0  0
   -4.1569   -2.4000    0.0000 C   0  0  0  0  0  0  0  0  0  0  0  0
   -5.5426   -3.2000    0.0000 H   0  0  0  0  0  0  0  0  0  0  0  0
   -5.5426   -1.6000    0.0000 H   0  0  0  0  0  0  0  0  0  0  0  0
   -4.1569   -4.0000    0.0000 H   0  0  0  0  0  0  0  0  0  0  0  0
   -1.3857   -2.4000    0.0000 C   0  0  0  0  0  0  0  0  0  0  0  0
   -1.3856   -4.0000    0.0000 H   0  0  0  0  0  0  0  0  0  0  0  0
    0.0000   -1.6000    0.0000 C   0  0  0  0  0  0  0  0  0  0  0  0
    1.3856   -2.4000    0.0000 C   0  0  0  0  0  0  0  0  0  0  0  0
    2.7713   -3.2000    0.0000 H   0  0  0  0  0  0  0  0  0  0  0  0
    1.3856   -4.0000    0.0000 H   0  0  0  0  0  0  0  0  0  0  0  0
    2.7713   -1.6000    0.0000 H   0  0  0  0  0  0  0  0  0  0  0  0
    0.0000   -0.0000    0.0000 C   0  0  0  0  0  0  0  0  0  0  0  0
    1.3856    0.8000    0.0000 C   0  0  0  0  0  0  0  0  0  0  0  0
    2.7713    1.6000    0.0000 H   0  0  0  0  0  0  0  0  0  0  0  0
    1.3856    2.4000    0.0000 H   0  0  0  0  0  0  0  0  0  0  0  0
    2.7713   -0.0000    0.0000 H   0  0  0  0  0  0  0  0  0  0  0  0
   -1.3857    2.4000    0.0000 O   0  0  0  0  0  0  0  0  0  0  0  0
   -2.7713    3.2000    0.0000 H   0  0  0  0  0  0  0  0  0  0  0  0
  1  2  4  0  0  0  0
  2  3  1  0  0  0  0
  2  4  4  0  0  0  0
  4  5  1  0  0  0  0
  5  6  1  0  0  0  0
  5  7  1  0  0  0  0
  5  8  1  0  0  0  0
  4  9  4  0  0  0  0
  9 10  1  0  0  0  0
  9 11  4  0  0  0  0
 11 12  1  0  0  0  0
 12 13  1  0  0  0  0
 12 14  1  0  0  0  0
 12 15  1  0  0  0  0
 11 16  4  0  0  0  0
 16  1  4  0  0  0  0
 16 17  1  0  0  0  0
 17 18  1  0  0  0  0
 17 19  1  0  0  0  0
 17 20  1  0  0  0  0
  1 21  1  0  0  0  0
 21 22  1  0  0  0  0
M  END
> <CAS>
697-82-5

> <NAME>
2,3,5-TRIMETHYLPHENOL

> <preferred_name>
2,3,5-Trimethylphenol

> <iupac>
2,3,5-trimethylphenol

> <SMILES>
Cc1cc(O)c(C)c(C)c1

> <Canonical_QSARr>
Cc1cc(O)c(C)c(C)c1

> <InChI_Code_QSARr>
InChI=1S/C9H12O/c1-6-4-7(2)8(3)9(10)5-6/h4-5,10H,1-3H3

> <InChI Key_QSARr>
OGRAOKJKVGDSFR-UHFFFAOYSA-N

> <Salt_Solvent>
?

> <WS Temperature>
25

> <WS Reference>
SHIU,WY ET AL. (1994)

> <dsstox_substance_id>
DTXSID3047184

> <LogMolar>
-2.2522

$$$$
700-47-0
  -INDIGO-01081615412D

 15 16  0  0  0  0  0  0  0  0999 V2000
    1.3856    4.0000    0.0000 O   0  0  0  0  0  0  0  0  0  0  0  0
    1.3856    2.4000    0.0000 C   0  0  0  0  0  0  0  0  0  0  0  0
    0.0001    1.6000    0.0000 C   0  0  0  0  0  0  0  0  0  0  0  0
    0.0001    0.0000    0.0000 C   0  0  0  0  0  0  0  0  0  0  0  0
   -1.3856   -0.8000    0.0000 N   0  0  0  1  0  0  0  0  0  0  0  0
   -2.7712    0.0000    0.0000 C   0  0  0  0  0  0  0  0  0  0  0  0
   -2.7712    1.6000    0.0000 C   0  0  0  0  0  0  0  0  0  0  0  0
   -1.3856    2.4000    0.0000 N   0  0  0  1  0  0  0  0  0  0  0  0
   -4.1569    2.4000    0.0000 H   0  0  0  0  0  0  0  0  0  0  0  0
   -4.1569   -0.8000    0.0000 H   0  0  0  0  0  0  0  0  0  0  0  0
    1.3856   -0.8000    0.0000 N   0  0  0  0  0  0  0  0  0  0  0  0
    1.3856   -2.4000    0.0000 H   0  0  0  0  0  0  0  0  0  0  0  0
    2.7713    0.0000    0.0000 C   0  0  0  0  0  0  0  0  0  0  0  0
    4.1569   -0.8000    0.0000 H   0  0  0  0  0  0  0  0  0  0  0  0
    2.7713    1.6000    0.0000 N   0  0  0  0  0  0  0  0  0  0  0  0
  1  2  2  0  0  0  0
  2  3  1  0  0  0  0
  3  4  4  0  0  0  0
  4  5  4  0  0  0  0
  5  6  4  0  0  0  0
  6  7  4  0  0  0  0
  7  8  4  0  0  0  0
  8  3  4  0  0  0  0
  7  9  1  0  0  0  0
  6 10  1  0  0  0  0
  4 11  1  0  0  0  0
 11 12  1  0  0  0  0
 11 13  1  0  0  0  0
 13 14  1  0  0  0  0
 13 15  2  0  0  0  0
 15  2  1  0  0  0  0
M  END
> <CAS>
700-47-0

> <NAME>
4-Hydroxypteridine

> <preferred_name>
Pteridin-4-ol

> <iupac>
1H-pteridin-4-one

> <SMILES>
O=C1N=CNc2[n]cc[n]c21

> <Canonical_QSARr>
O=C1N=CNc2[n]cc[n]c21

> <InChI_Code_QSARr>
InChI=1S/C6H4N4O/c11-6-4-5(9-3-10-6)8-2-1-7-4/h1-3H,(H,8,9,10,11)

> <InChI Key_QSARr>
UWWUXWWWOUNMKW-UHFFFAOYSA-N

> <Salt_Solvent>
?

> <WS Temperature>
20

> <WS Reference>
YALKOWSKY,SH & DANNENFELSER,RM (1992)

> <dsstox_substance_id>
DTXSID20220263

> <LogMolar>
-1.4716

$$$$
731-27-1
  -INDIGO-01081615412D

 32 32  0  0  0  0  0  0  0  0999 V2000
    1.6000    2.7713    0.0000 C   0  0  0  0  0  0  0  0  0  0  0  0
    2.4000    4.1569    0.0000 F   0  0  0  0  0  0  0  0  0  0  0  0
    3.2000    2.7713    0.0000 Cl  0  0  0  0  0  0  0  0  0  0  0  0
    0.8000    4.1569    0.0000 Cl  0  0  0  0  0  0  0  0  0  0  0  0
   -0.0001    2.7713    0.0000 S   0  0  0  0  0  0  0  0  0  0  0  0
   -0.8001    1.3856    0.0000 N   0  0  0  0  0  0  0  0  0  0  0  0
   -2.4001    1.3856    0.0000 C   0  0  0  0  0  0  0  0  0  0  0  0
   -3.1999    2.7713    0.0000 C   0  0  0  0  0  0  0  0  0  0  0  0
   -2.4001    4.1569    0.0000 H   0  0  0  0  0  0  0  0  0  0  0  0
   -4.7999    2.7712    0.0000 C   0  0  0  0  0  0  0  0  0  0  0  0
   -5.6000    4.1569    0.0000 H   0  0  0  0  0  0  0  0  0  0  0  0
   -5.6000    1.3856    0.0000 C   0  0  0  0  0  0  0  0  0  0  0  0
   -7.2000    1.3856    0.0000 C   0  0  0  0  0  0  0  0  0  0  0  0
   -8.8000    1.3856    0.0000 H   0  0  0  0  0  0  0  0  0  0  0  0
   -8.0000    2.7712    0.0000 H   0  0  0  0  0  0  0  0  0  0  0  0
   -8.0000   -0.0001    0.0000 H   0  0  0  0  0  0  0  0  0  0  0  0
   -4.7999   -0.0001    0.0000 C   0  0  0  0  0  0  0  0  0  0  0  0
   -5.6000   -1.3856    0.0000 H   0  0  0  0  0  0  0  0  0  0  0  0
   -3.1999   -0.0001    0.0000 C   0  0  0  0  0  0  0  0  0  0  0  0
   -2.4001   -1.3856    0.0000 H   0  0  0  0  0  0  0  0  0  0  0  0
   -0.0001    0.0001    0.0000 S   0  0  0  0  0  0  0  0  0  0  0  0
    0.8000   -1.3856    0.0000 N   0  0  0  0  0  0  0  0  0  0  0  0
    2.4000   -1.3856    0.0000 C   0  0  0  0  0  0  0  0  0  0  0  0
    4.0000   -1.3856    0.0000 H   0  0  0  0  0  0  0  0  0  0  0  0
    3.2000   -2.7712    0.0000 H   0  0  0  0  0  0  0  0  0  0  0  0
    3.2000    0.0001    0.0000 H   0  0  0  0  0  0  0  0  0  0  0  0
   -0.0001   -2.7712    0.0000 C   0  0  0  0  0  0  0  0  0  0  0  0
   -0.8001   -4.1569    0.0000 H   0  0  0  0  0  0  0  0  0  0  0  0
    0.8000   -4.1569    0.0000 H   0  0  0  0  0  0  0  0  0  0  0  0
   -1.6001   -2.7712    0.0000 H   0  0  0  0  0  0  0  0  0  0  0  0
    1.3857    0.8000    0.0000 O   0  0  0  0  0  0  0  0  0  0  0  0
   -1.3856   -0.8000    0.0000 O   0  0  0  0  0  0  0  0  0  0  0  0
  1  2  1  0  0  0  0
  1  3  1  0  0  0  0
  1  4  1  0  0  0  0
  1  5  1  0  0  0  0
  5  6  1  0  0  0  0
  6  7  1  0  0  0  0
  7  8  4  0  0  0  0
  8  9  1  0  0  0  0
  8 10  4  0  0  0  0
 10 11  1  0  0  0  0
 10 12  4  0  0  0  0
 12 13  1  0  0  0  0
 13 14  1  0  0  0  0
 13 15  1  0  0  0  0
 13 16  1  0  0  0  0
 12 17  4  0  0  0  0
 17 18  1  0  0  0  0
 17 19  4  0  0  0  0
 19  7  4  0  0  0  0
 19 20  1  0  0  0  0
  6 21  1  0  0  0  0
 21 22  1  0  0  0  0
 22 23  1  0  0  0  0
 23 24  1  0  0  0  0
 23 25  1  0  0  0  0
 23 26  1  0  0  0  0
 22 27  1  0  0  0  0
 27 28  1  0  0  0  0
 27 29  1  0  0  0  0
 27 30  1  0  0  0  0
 21 31  2  0  0  0  0
 21 32  2  0  0  0  0
M  END
> <CAS>
731-27-1

> <NAME>
TOLYFLUANIDE

> <preferred_name>
Tolylfluanid

> <iupac>
N-{[dichloro(fluoro)methyl]sulfanyl}-N',N'-dimethyl-N-(4-methylphenyl)sulfuric diamide

> <SMILES>
CN(C)S(=O)(=O)N(SC(F)(Cl)Cl)c1ccc(C)cc1

> <Canonical_QSARr>
CN(C)S(=O)(=O)N(SC(F)(Cl)Cl)c1ccc(C)cc1

> <InChI_Code_QSARr>
InChI=1S/C10H13Cl2FN2O2S2/c1-8-4-6-9(7-5-8)15(18-10(11,12)13)19(16,17)14(2)3/h4-7H,1-3H3

> <InChI Key_QSARr>
HYVWIQDYBVKITD-UHFFFAOYSA-N

> <Salt_Solvent>
?

> <WS Temperature>
20

> <WS Reference>
TOMLIN,C (1997)

> <dsstox_substance_id>
DTXSID8042478

> <LogMolar>
-5.5864

$$$$
741-58-2
  -INDIGO-01081615412D

 47 47  0  0  0  0  0  0  0  0999 V2000
   -0.0001    2.7713    0.0000 P   0  0  0  0  0  0  0  0  0  0  0  0
   -1.3857    1.9713    0.0000 S   0  0  0  0  0  0  0  0  0  0  0  0
   -2.7713    2.7713    0.0000 C   0  0  0  0  0  0  0  0  0  0  0  0
   -4.1569    3.5712    0.0000 C   0  0  0  0  0  0  0  0  0  0  0  0
   -5.5425    4.3712    0.0000 N   0  0  0  0  0  0  0  0  0  0  0  0
   -6.9281    3.5712    0.0000 S   0  0  0  0  0  0  0  0  0  0  0  0
   -8.3140    2.7713    0.0000 C   0  0  0  0  0  0  0  0  0  0  0  0
   -9.6996    3.5712    0.0000 C   0  0  0  0  0  0  0  0  0  0  0  0
   -9.6996    5.1713    0.0000 H   0  0  0  0  0  0  0  0  0  0  0  0
  -11.0852    2.7713    0.0000 C   0  0  0  0  0  0  0  0  0  0  0  0
  -12.4708    3.5712    0.0000 H   0  0  0  0  0  0  0  0  0  0  0  0
  -11.0852    1.1713    0.0000 C   0  0  0  0  0  0  0  0  0  0  0  0
  -12.4708    0.3713    0.0000 H   0  0  0  0  0  0  0  0  0  0  0  0
   -9.6996    0.3713    0.0000 C   0  0  0  0  0  0  0  0  0  0  0  0
   -9.6996   -1.2287    0.0000 H   0  0  0  0  0  0  0  0  0  0  0  0
   -8.3140    1.1713    0.0000 C   0  0  0  0  0  0  0  0  0  0  0  0
   -6.9281    0.3713    0.0000 H   0  0  0  0  0  0  0  0  0  0  0  0
   -6.1282    2.1857    0.0000 O   0  0  0  0  0  0  0  0  0  0  0  0
   -7.7282    4.9569    0.0000 O   0  0  0  0  0  0  0  0  0  0  0  0
   -5.5425    5.9713    0.0000 H   0  0  0  0  0  0  0  0  0  0  0  0
   -3.3570    4.9569    0.0000 H   0  0  0  0  0  0  0  0  0  0  0  0
   -4.9570    2.1857    0.0000 H   0  0  0  0  0  0  0  0  0  0  0  0
   -1.9712    4.1569    0.0000 H   0  0  0  0  0  0  0  0  0  0  0  0
   -3.5712    1.3857    0.0000 H   0  0  0  0  0  0  0  0  0  0  0  0
   -0.8000    4.1569    0.0000 S   0  0  0  0  0  0  0  0  0  0  0  0
    1.3858    3.5712    0.0000 O   0  0  0  0  0  0  0  0  0  0  0  0
    2.7714    2.7713    0.0000 C   0  0  0  0  0  0  0  0  0  0  0  0
    4.1570    1.9713    0.0000 C   0  0  0  0  0  0  0  0  0  0  0  0
    5.5426    1.1713    0.0000 H   0  0  0  0  0  0  0  0  0  0  0  0
    5.5426    2.7713    0.0000 H   0  0  0  0  0  0  0  0  0  0  0  0
    4.1570    0.3713    0.0000 H   0  0  0  0  0  0  0  0  0  0  0  0
    3.5712    4.1569    0.0000 C   0  0  0  0  0  0  0  0  0  0  0  0
    4.3714    5.5425    0.0000 H   0  0  0  0  0  0  0  0  0  0  0  0
    2.7714    5.5425    0.0000 H   0  0  0  0  0  0  0  0  0  0  0  0
    5.1712    4.1569    0.0000 H   0  0  0  0  0  0  0  0  0  0  0  0
    1.9712    1.3857    0.0000 H   0  0  0  0  0  0  0  0  0  0  0  0
    0.8000    1.3857    0.0000 O   0  0  0  0  0  0  0  0  0  0  0  0
   -0.0001    0.0000    0.0000 C   0  0  0  0  0  0  0  0  0  0  0  0
   -0.8000   -1.3856    0.0000 C   0  0  0  0  0  0  0  0  0  0  0  0
   -1.6001   -2.7713    0.0000 H   0  0  0  0  0  0  0  0  0  0  0  0
   -0.0001   -2.7713    0.0000 H   0  0  0  0  0  0  0  0  0  0  0  0
   -2.4000   -1.3856    0.0000 H   0  0  0  0  0  0  0  0  0  0  0  0
    1.3858   -0.8000    0.0000 C   0  0  0  0  0  0  0  0  0  0  0  0
    2.7714   -1.6000    0.0000 H   0  0  0  0  0  0  0  0  0  0  0  0
    1.3858   -2.4000    0.0000 H   0  0  0  0  0  0  0  0  0  0  0  0
    2.7714    0.0000    0.0000 H   0  0  0  0  0  0  0  0  0  0  0  0
   -1.3857    0.8000    0.0000 H   0  0  0  0  0  0  0  0  0  0  0  0
  1  2  1  0  0  0  0
  2  3  1  0  0  0  0
  3  4  1  0  0  0  0
  4  5  1  0  0  0  0
  5  6  1  0  0  0  0
  6  7  1  0  0  0  0
  7  8  4  0  0  0  0
  8  9  1  0  0  0  0
  8 10  4  0  0  0  0
 10 11  1  0  0  0  0
 10 12  4  0  0  0  0
 12 13  1  0  0  0  0
 12 14  4  0  0  0  0
 14 15  1  0  0  0  0
 14 16  4  0  0  0  0
 16  7  4  0  0  0  0
 16 17  1  0  0  0  0
  6 18  2  0  0  0  0
  6 19  2  0  0  0  0
  5 20  1  0  0  0  0
  4 21  1  0  0  0  0
  4 22  1  0  0  0  0
  3 23  1  0  0  0  0
  3 24  1  0  0  0  0
  1 25  2  0  0  0  0
  1 26  1  0  0  0  0
 26 27  1  0  0  0  0
 27 28  1  0  0  0  0
 28 29  1  0  0  0  0
 28 30  1  0  0  0  0
 28 31  1  0  0  0  0
 27 32  1  0  0  0  0
 32 33  1  0  0  0  0
 32 34  1  0  0  0  0
 32 35  1  0  0  0  0
 27 36  1  0  0  0  0
  1 37  1  0  0  0  0
 37 38  1  0  0  0  0
 38 39  1  0  0  0  0
 39 40  1  0  0  0  0
 39 41  1  0  0  0  0
 39 42  1  0  0  0  0
 38 43  1  0  0  0  0
 43 44  1  0  0  0  0
 43 45  1  0  0  0  0
 43 46  1  0  0  0  0
 38 47  1  0  0  0  0
M  END
> <CAS>
741-58-2

> <NAME>
BENSULIDE

> <preferred_name>
Bensulide

> <iupac>
S-{2-[(phenylsulfonyl)amino]ethyl} O,O-dipropan-2-yl phosphorodithioate

> <SMILES>
CC(C)OP(=S)(OC(C)C)SCCNS(=O)(=O)c1ccccc1

> <Canonical_QSARr>
CC(C)OP(=S)(OC(C)C)SCCNS(=O)(=O)c1ccccc1

> <InChI_Code_QSARr>
InChI=1S/C14H24NO4PS3/c1-12(2)18-20(21,19-13(3)4)22-11-10-15-23(16,17)14-8-6-5-7-9-14/h5-9,12-13,15H,10-11H2,1-4H3

> <InChI Key_QSARr>
RRNIZKPFKNDSRS-UHFFFAOYSA-N

> <Salt_Solvent>
?

> <WS Temperature>
20

> <WS Reference>
YALKOWSKY,SH & DANNENFELSER,RM (1992)

> <dsstox_substance_id>
DTXSID9032329

> <LogMolar>
-4.2014

$$$$
760-23-6
  -INDIGO-01081615412D

 12 11  0  0  0  0  0  0  0  0999 V2000
   -2.4000   -1.3856    0.0000 C   0  0  0  0  0  0  0  0  0  0  0  0
   -1.6000    0.0000    0.0000 C   0  0  0  0  0  0  0  0  0  0  0  0
   -0.0000    0.0000    0.0000 C   0  0  0  0  0  0  0  0  0  0  0  0
    1.6000    0.0000    0.0000 C   0  0  0  0  0  0  0  0  0  0  0  0
    3.2000    0.0000    0.0000 Cl  0  0  0  0  0  0  0  0  0  0  0  0
    2.4000   -1.3856    0.0000 H   0  0  0  0  0  0  0  0  0  0  0  0
    2.4000    1.3856    0.0000 H   0  0  0  0  0  0  0  0  0  0  0  0
   -0.0000    1.6000    0.0000 Cl  0  0  0  0  0  0  0  0  0  0  0  0
   -0.0000   -1.6000    0.0000 H   0  0  0  0  0  0  0  0  0  0  0  0
   -2.4000    1.3856    0.0000 H   0  0  0  0  0  0  0  0  0  0  0  0
   -4.0000   -1.3856    0.0000 H   0  0  0  0  0  0  0  0  0  0  0  0
   -1.6000   -2.7713    0.0000 H   0  0  0  0  0  0  0  0  0  0  0  0
  1  2  2  0  0  0  0
  2  3  1  0  0  0  0
  3  4  1  0  0  0  0
  4  5  1  0  0  0  0
  4  6  1  0  0  0  0
  4  7  1  0  0  0  0
  3  8  1  0  0  0  0
  3  9  1  0  0  0  0
  2 10  1  0  0  0  0
  1 11  1  0  0  0  0
  1 12  1  0  0  0  0
M  END
> <CAS>
760-23-6

> <NAME>
3,4-DICHLORO-1-BUTENE

> <preferred_name>
3,4-Dichloro-1-butene

> <iupac>
3,4-dichlorobut-1-ene

> <SMILES>
C=CC(Cl)CCl

> <Canonical_QSARr>
C=CC(Cl)CCl

> <InChI_Code_QSARr>
InChI=1S/C4H6Cl2/c1-2-4(6)3-5/h2,4H,1,3H2

> <InChI Key_QSARr>
XVEASTGLHPVZNA-UHFFFAOYSA-N

> <Salt_Solvent>
?

> <WS Temperature>
25

> <WS Reference>
ITC/USEPA (1980)

> <dsstox_substance_id>
DTXSID8022113

> <LogMolar>
-2.4737

$$$$
763-29-1
  -INDIGO-01081615412D

 18 17  0  0  0  0  0  0  0  0999 V2000
   -1.6000    0.0000    0.0000 C   0  0  0  0  0  0  0  0  0  0  0  0
   -2.4001    1.3856    0.0000 C   0  0  0  0  0  0  0  0  0  0  0  0
   -4.0000    1.3856    0.0000 H   0  0  0  0  0  0  0  0  0  0  0  0
   -1.6000    2.7713    0.0000 H   0  0  0  0  0  0  0  0  0  0  0  0
   -2.4001   -1.3856    0.0000 C   0  0  0  0  0  0  0  0  0  0  0  0
   -3.2000   -2.7713    0.0000 H   0  0  0  0  0  0  0  0  0  0  0  0
   -4.0000   -1.3856    0.0000 H   0  0  0  0  0  0  0  0  0  0  0  0
   -1.6000   -2.7713    0.0000 H   0  0  0  0  0  0  0  0  0  0  0  0
    0.0000    0.0000    0.0000 C   0  0  0  0  0  0  0  0  0  0  0  0
    1.6000    0.0000    0.0000 C   0  0  0  0  0  0  0  0  0  0  0  0
    3.2001    0.0000    0.0000 C   0  0  0  0  0  0  0  0  0  0  0  0
    4.8000    0.0000    0.0000 H   0  0  0  0  0  0  0  0  0  0  0  0
    4.0000    1.3856    0.0000 H   0  0  0  0  0  0  0  0  0  0  0  0
    4.0000   -1.3856    0.0000 H   0  0  0  0  0  0  0  0  0  0  0  0
    1.6000   -1.6000    0.0000 H   0  0  0  0  0  0  0  0  0  0  0  0
    1.6000    1.6000    0.0000 H   0  0  0  0  0  0  0  0  0  0  0  0
    0.0000    1.6000    0.0000 H   0  0  0  0  0  0  0  0  0  0  0  0
    0.0000   -1.6000    0.0000 H   0  0  0  0  0  0  0  0  0  0  0  0
  1  2  2  0  0  0  0
  2  3  1  0  0  0  0
  2  4  1  0  0  0  0
  1  5  1  0  0  0  0
  5  6  1  0  0  0  0
  5  7  1  0  0  0  0
  5  8  1  0  0  0  0
  1  9  1  0  0  0  0
  9 10  1  0  0  0  0
 10 11  1  0  0  0  0
 11 12  1  0  0  0  0
 11 13  1  0  0  0  0
 11 14  1  0  0  0  0
 10 15  1  0  0  0  0
 10 16  1  0  0  0  0
  9 17  1  0  0  0  0
  9 18  1  0  0  0  0
M  END
> <CAS>
763-29-1

> <NAME>
2-METHYL-1-PENTENE

> <preferred_name>
2-Methylbut-1-ene

> <iupac>
2-methylpent-1-ene

> <SMILES>
CCCC(C)=C

> <Canonical_QSARr>
CCCC(C)=C

> <InChI_Code_QSARr>
InChI=1S/C6H12/c1-4-5-6(2)3/h2,4-5H2,1,3H3

> <InChI Key_QSARr>
WWUVJRULCWHUSA-UHFFFAOYSA-N

> <Salt_Solvent>
?

> <WS Temperature>
25

> <WS Reference>
YALKOWSKY,SH & DANNENFELSER,RM (1992)

> <dsstox_substance_id>
DTXSID3052224

> <LogMolar>
-3.033

$$$$
767-15-7
  -INDIGO-01081615412D

 18 18  0  0  0  0  0  0  0  0999 V2000
   -1.3856    2.4000    0.0000 C   0  0  0  0  0  0  0  0  0  0  0  0
   -1.3857    4.0000    0.0000 N   0  0  0  0  0  0  0  0  0  0  0  0
    0.0000    4.8000    0.0000 H   0  0  0  0  0  0  0  0  0  0  0  0
   -2.7713    4.8000    0.0000 H   0  0  0  0  0  0  0  0  0  0  0  0
   -2.7713    1.6000    0.0000 N   0  0  0  1  0  0  0  0  0  0  0  0
   -2.7713    0.0000    0.0000 C   0  0  0  0  0  0  0  0  0  0  0  0
   -4.1569   -0.8000    0.0000 C   0  0  0  0  0  0  0  0  0  0  0  0
   -5.5426   -1.6000    0.0000 H   0  0  0  0  0  0  0  0  0  0  0  0
   -5.5426    0.0000    0.0000 H   0  0  0  0  0  0  0  0  0  0  0  0
   -4.1569   -2.4000    0.0000 H   0  0  0  0  0  0  0  0  0  0  0  0
   -1.3856   -0.8000    0.0000 C   0  0  0  0  0  0  0  0  0  0  0  0
   -1.3856   -2.4000    0.0000 H   0  0  0  0  0  0  0  0  0  0  0  0
    0.0000    0.0000    0.0000 C   0  0  0  0  0  0  0  0  0  0  0  0
    1.3857   -0.8000    0.0000 C   0  0  0  0  0  0  0  0  0  0  0  0
    2.7713   -1.6000    0.0000 H   0  0  0  0  0  0  0  0  0  0  0  0
    2.7713    0.0000    0.0000 H   0  0  0  0  0  0  0  0  0  0  0  0
    1.3857   -2.4000    0.0000 H   0  0  0  0  0  0  0  0  0  0  0  0
    0.0000    1.6000    0.0000 N   0  0  0  1  0  0  0  0  0  0  0  0
  1  2  1  0  0  0  0
  2  3  1  0  0  0  0
  2  4  1  0  0  0  0
  1  5  4  0  0  0  0
  5  6  4  0  0  0  0
  6  7  1  0  0  0  0
  7  8  1  0  0  0  0
  7  9  1  0  0  0  0
  7 10  1  0  0  0  0
  6 11  4  0  0  0  0
 11 12  1  0  0  0  0
 11 13  4  0  0  0  0
 13 14  1  0  0  0  0
 14 15  1  0  0  0  0
 14 16  1  0  0  0  0
 14 17  1  0  0  0  0
 13 18  4  0  0  0  0
 18  1  4  0  0  0  0
M  END
> <CAS>
767-15-7

> <NAME>
2-AMINO-4,6-DIMETHYLPYRIMIDINE

> <preferred_name>
2-Amino-4,6-dihydroxypyrimidine

> <iupac>
4,6-dimethylpyrimidin-2-amine

> <SMILES>
Cc1cc(C)[n]c(N)[n]1

> <Canonical_QSARr>
Cc1cc(C)[n]c(N)[n]1

> <InChI_Code_QSARr>
InChI=1S/C6H9N3/c1-4-3-5(2)9-6(7)8-4/h3H,1-2H3,(H2,7,8,9)

> <InChI Key_QSARr>
IDQNBVFPZMCDDN-UHFFFAOYSA-N

> <Salt_Solvent>
?

> <WS Temperature>
25

> <WS Reference>
BEILSTEIN

> <dsstox_substance_id>
DTXSID8052510

> <LogMolar>
-0.4884

$$$$
779-02-2
  -INDIGO-01081615412D

 27 29  0  0  0  0  0  0  0  0999 V2000
   -1.3856    2.4001    0.0000 C   0  0  0  0  0  0  0  0  0  0  0  0
   -2.7712    3.2000    0.0000 C   0  0  0  0  0  0  0  0  0  0  0  0
   -2.7712    4.8000    0.0000 H   0  0  0  0  0  0  0  0  0  0  0  0
   -4.1569    2.3999    0.0000 C   0  0  0  0  0  0  0  0  0  0  0  0
   -5.5426    3.2000    0.0000 H   0  0  0  0  0  0  0  0  0  0  0  0
   -4.1569    0.8001    0.0000 C   0  0  0  0  0  0  0  0  0  0  0  0
   -5.5426    0.0000    0.0000 H   0  0  0  0  0  0  0  0  0  0  0  0
   -2.7712    0.0000    0.0000 C   0  0  0  0  0  0  0  0  0  0  0  0
   -2.7712   -1.6000    0.0000 H   0  0  0  0  0  0  0  0  0  0  0  0
   -1.3856    0.7999    0.0000 C   0  0  0  0  0  0  0  0  0  0  0  0
    0.0001    0.0000    0.0000 C   0  0  0  0  0  0  0  0  0  0  0  0
    0.0001   -1.6000    0.0000 C   0  0  0  0  0  0  0  0  0  0  0  0
    0.0001   -3.2000    0.0000 H   0  0  0  0  0  0  0  0  0  0  0  0
    1.3856   -2.3999    0.0000 H   0  0  0  0  0  0  0  0  0  0  0  0
   -1.3856   -2.4001    0.0000 H   0  0  0  0  0  0  0  0  0  0  0  0
    1.3856    0.8001    0.0000 C   0  0  0  0  0  0  0  0  0  0  0  0
    1.3856    2.4001    0.0000 C   0  0  0  0  0  0  0  0  0  0  0  0
    2.7712    3.2000    0.0000 C   0  0  0  0  0  0  0  0  0  0  0  0
    4.1569    2.3999    0.0000 C   0  0  0  0  0  0  0  0  0  0  0  0
    4.1569    0.8001    0.0000 C   0  0  0  0  0  0  0  0  0  0  0  0
    2.7712    0.0000    0.0000 C   0  0  0  0  0  0  0  0  0  0  0  0
    2.7712   -1.6000    0.0000 H   0  0  0  0  0  0  0  0  0  0  0  0
    5.5426    0.0000    0.0000 H   0  0  0  0  0  0  0  0  0  0  0  0
    5.5426    3.2000    0.0000 H   0  0  0  0  0  0  0  0  0  0  0  0
    2.7712    4.8000    0.0000 H   0  0  0  0  0  0  0  0  0  0  0  0
    0.0001    3.2000    0.0000 C   0  0  0  0  0  0  0  0  0  0  0  0
    0.0001    4.8000    0.0000 H   0  0  0  0  0  0  0  0  0  0  0  0
  1  2  4  0  0  0  0
  2  3  1  0  0  0  0
  2  4  4  0  0  0  0
  4  5  1  0  0  0  0
  4  6  4  0  0  0  0
  6  7  1  0  0  0  0
  6  8  4  0  0  0  0
  8  9  1  0  0  0  0
  8 10  4  0  0  0  0
 10  1  4  0  0  0  0
 10 11  4  0  0  0  0
 11 12  1  0  0  0  0
 12 13  1  0  0  0  0
 12 14  1  0  0  0  0
 12 15  1  0  0  0  0
 11 16  4  0  0  0  0
 16 17  4  0  0  0  0
 17 18  4  0  0  0  0
 18 19  4  0  0  0  0
 19 20  4  0  0  0  0
 20 21  4  0  0  0  0
 21 16  4  0  0  0  0
 21 22  1  0  0  0  0
 20 23  1  0  0  0  0
 19 24  1  0  0  0  0
 18 25  1  0  0  0  0
 17 26  4  0  0  0  0
 26  1  4  0  0  0  0
 26 27  1  0  0  0  0
M  END
> <CAS>
779-02-2

> <NAME>
9-METHYLANTHRACENE

> <preferred_name>
9-Methylanthracene

> <iupac>
9-METHYLANTHRACENE

> <SMILES>
Cc1c2ccccc2cc2ccccc21

> <Canonical_QSARr>
Cc1c2ccccc2cc2ccccc21

> <InChI_Code_QSARr>
InChI=1S/C15H12/c1-11-14-8-4-2-6-12(14)10-13-7-3-5-9-15(11)13/h2-10H,1H3

> <InChI Key_QSARr>
CPGPAVAKSZHMBP-UHFFFAOYSA-N

> <Salt_Solvent>
?

> <WS Temperature>
25

> <WS Reference>
YALKOWSKY,SH & DANNENFELSER,RM (1992)

> <dsstox_substance_id>
DTXSID3061134

> <LogMolar>
-5.8672

$$$$
789-02-6
  -INDIGO-01081615412D

 28 29  0  0  0  0  0  0  0  0999 V2000
    2.7292   -0.4812    0.0000 C   0  0  0  0  0  0  0  0  0  0  0  0
    1.5034    0.5473    0.0000 C   0  0  0  0  0  0  0  0  0  0  0  0
   -0.0001   -0.0000    0.0000 C   0  0  0  0  0  0  0  0  0  0  0  0
   -1.5999   -0.0000    0.0000 C   0  0  0  0  0  0  0  0  0  0  0  0
   -2.4001    1.3856    0.0000 C   0  0  0  0  0  0  0  0  0  0  0  0
   -1.5999    2.7713    0.0000 H   0  0  0  0  0  0  0  0  0  0  0  0
   -4.0000    1.3856    0.0000 C   0  0  0  0  0  0  0  0  0  0  0  0
   -4.7999    2.7713    0.0000 H   0  0  0  0  0  0  0  0  0  0  0  0
   -4.7999   -0.0000    0.0000 C   0  0  0  0  0  0  0  0  0  0  0  0
   -6.4000   -0.0000    0.0000 Cl  0  0  0  0  0  0  0  0  0  0  0  0
   -4.0000   -1.3857    0.0000 C   0  0  0  0  0  0  0  0  0  0  0  0
   -4.7999   -2.7713    0.0000 H   0  0  0  0  0  0  0  0  0  0  0  0
   -2.4001   -1.3857    0.0000 C   0  0  0  0  0  0  0  0  0  0  0  0
   -1.5999   -2.7713    0.0000 H   0  0  0  0  0  0  0  0  0  0  0  0
   -0.2778   -1.5757    0.0000 C   0  0  0  0  0  0  0  0  0  0  0  0
   -0.5556   -3.1514    0.0000 Cl  0  0  0  0  0  0  0  0  0  0  0  0
    0.9478   -2.6042    0.0000 Cl  0  0  0  0  0  0  0  0  0  0  0  0
    1.2257   -1.0284    0.0000 Cl  0  0  0  0  0  0  0  0  0  0  0  0
   -0.0001    1.6000    0.0000 H   0  0  0  0  0  0  0  0  0  0  0  0
    1.7813    2.1229    0.0000 C   0  0  0  0  0  0  0  0  0  0  0  0
    0.5557    3.1514    0.0000 Cl  0  0  0  0  0  0  0  0  0  0  0  0
    3.2848    2.6701    0.0000 C   0  0  0  0  0  0  0  0  0  0  0  0
    3.5627    4.2458    0.0000 H   0  0  0  0  0  0  0  0  0  0  0  0
    4.5106    1.6417    0.0000 C   0  0  0  0  0  0  0  0  0  0  0  0
    6.0140    2.1889    0.0000 H   0  0  0  0  0  0  0  0  0  0  0  0
    4.2327    0.0660    0.0000 C   0  0  0  0  0  0  0  0  0  0  0  0
    5.4584   -0.9624    0.0000 H   0  0  0  0  0  0  0  0  0  0  0  0
    2.4513   -2.0570    0.0000 H   0  0  0  0  0  0  0  0  0  0  0  0
  1  2  4  0  0  0  0
  2  3  1  0  0  0  0
  3  4  1  0  0  0  0
  4  5  4  0  0  0  0
  5  6  1  0  0  0  0
  5  7  4  0  0  0  0
  7  8  1  0  0  0  0
  7  9  4  0  0  0  0
  9 10  1  0  0  0  0
  9 11  4  0  0  0  0
 11 12  1  0  0  0  0
 11 13  4  0  0  0  0
 13  4  4  0  0  0  0
 13 14  1  0  0  0  0
  3 15  1  0  0  0  0
 15 16  1  0  0  0  0
 15 17  1  0  0  0  0
 15 18  1  0  0  0  0
  3 19  1  0  0  0  0
  2 20  4  0  0  0  0
 20 21  1  0  0  0  0
 20 22  4  0  0  0  0
 22 23  1  0  0  0  0
 22 24  4  0  0  0  0
 24 25  1  0  0  0  0
 24 26  4  0  0  0  0
 26  1  4  0  0  0  0
 26 27  1  0  0  0  0
  1 28  1  0  0  0  0
M  END
> <CAS>
789-02-6

> <NAME>
O,P'-DDT

> <preferred_name>
o,p'-DDT

> <iupac>
1-chloro-2-[2,2,2-trichloro-1-(4-chlorophenyl)ethyl]benzene

> <SMILES>
Clc1ccc(cc1)C(c1ccccc1Cl)C(Cl)(Cl)Cl

> <Canonical_QSARr>
Clc1ccc(cc1)C(c1ccccc1Cl)C(Cl)(Cl)Cl

> <InChI_Code_QSARr>
InChI=1S/C14H9Cl5/c15-10-7-5-9(6-8-10)13(14(17,18)19)11-3-1-2-4-12(11)16/h1-8,13H

> <InChI Key_QSARr>
CVUGPAFCQJIYDT-UHFFFAOYSA-N

> <Salt_Solvent>
?

> <WS Temperature>
25

> <WS Reference>
YALKOWSKY,SH & DANNENFELSER,RM (1992)

> <dsstox_substance_id>
DTXSID6022345

> <LogMolar>
-6.6202

$$$$
818-61-1
  -INDIGO-01081615412D

 16 15  0  0  0  0  0  0  0  0999 V2000
   -5.5425    0.0000    0.0000 C   0  0  0  0  0  0  0  0  0  0  0  0
   -4.1569    0.8000    0.0000 C   0  0  0  0  0  0  0  0  0  0  0  0
   -2.7712    0.0000    0.0000 C   0  0  0  0  0  0  0  0  0  0  0  0
   -1.3857    0.8000    0.0000 O   0  0  0  0  0  0  0  0  0  0  0  0
   -0.0001    0.0000    0.0000 C   0  0  0  0  0  0  0  0  0  0  0  0
    1.3856   -0.8000    0.0000 C   0  0  0  0  0  0  0  0  0  0  0  0
    2.7713   -1.6000    0.0000 O   0  0  0  0  0  0  0  0  0  0  0  0
    4.1569   -0.8000    0.0000 H   0  0  0  0  0  0  0  0  0  0  0  0
    0.5857   -2.1856    0.0000 H   0  0  0  0  0  0  0  0  0  0  0  0
    2.1857    0.5856    0.0000 H   0  0  0  0  0  0  0  0  0  0  0  0
    0.8000    1.3856    0.0000 H   0  0  0  0  0  0  0  0  0  0  0  0
   -0.8000   -1.3856    0.0000 H   0  0  0  0  0  0  0  0  0  0  0  0
   -2.7712   -1.6000    0.0000 O   0  0  0  0  0  0  0  0  0  0  0  0
   -4.1569    2.4000    0.0000 H   0  0  0  0  0  0  0  0  0  0  0  0
   -6.9282    0.8000    0.0000 H   0  0  0  0  0  0  0  0  0  0  0  0
   -5.5425   -1.6000    0.0000 H   0  0  0  0  0  0  0  0  0  0  0  0
  1  2  2  0  0  0  0
  2  3  1  0  0  0  0
  3  4  1  0  0  0  0
  4  5  1  0  0  0  0
  5  6  1  0  0  0  0
  6  7  1  0  0  0  0
  7  8  1  0  0  0  0
  6  9  1  0  0  0  0
  6 10  1  0  0  0  0
  5 11  1  0  0  0  0
  5 12  1  0  0  0  0
  3 13  2  0  0  0  0
  2 14  1  0  0  0  0
  1 15  1  0  0  0  0
  1 16  1  0  0  0  0
M  END
> <CAS>
818-61-1

> <NAME>
2-HYDROXYETHYL ACRYLATE

> <preferred_name>
2-Hydroxyethyl acrylate

> <iupac>
2-hydroxyethyl prop-2-enoate

> <SMILES>
C=CC(=O)OCCO

> <Canonical_QSARr>
C=CC(=O)OCCO

> <InChI_Code_QSARr>
InChI=1S/C5H8O3/c1-2-5(7)8-4-3-6/h2,6H,1,3-4H2

> <InChI Key_QSARr>
OMIGHNLMNHATMP-UHFFFAOYSA-N

> <Salt_Solvent>
?

> <WS Temperature>
25

> <WS Reference>
ULLMANN'S ENCYCL; A21:159

> <dsstox_substance_id>
DTXSID2022123

> <LogMolar>
0.9351

$$$$
821-55-6
  -INDIGO-01081615412D

 28 27  0  0  0  0  0  0  0  0999 V2000
   -4.8001   -0.0000    0.0000 C   0  0  0  0  0  0  0  0  0  0  0  0
   -3.2000   -0.0000    0.0000 C   0  0  0  0  0  0  0  0  0  0  0  0
   -1.6001   -0.0000    0.0000 C   0  0  0  0  0  0  0  0  0  0  0  0
    0.0001   -0.0000    0.0000 C   0  0  0  0  0  0  0  0  0  0  0  0
    1.6000   -0.0000    0.0000 C   0  0  0  0  0  0  0  0  0  0  0  0
    3.2001   -0.0000    0.0000 C   0  0  0  0  0  0  0  0  0  0  0  0
    4.8000   -0.0000    0.0000 C   0  0  0  0  0  0  0  0  0  0  0  0
    6.3999   -0.0000    0.0000 C   0  0  0  0  0  0  0  0  0  0  0  0
    7.2001    1.3856    0.0000 C   0  0  0  0  0  0  0  0  0  0  0  0
    8.0000    2.7713    0.0000 H   0  0  0  0  0  0  0  0  0  0  0  0
    8.8000    1.3856    0.0000 H   0  0  0  0  0  0  0  0  0  0  0  0
    6.3999    2.7713    0.0000 H   0  0  0  0  0  0  0  0  0  0  0  0
    7.2001   -1.3856    0.0000 O   0  0  0  0  0  0  0  0  0  0  0  0
    4.8000   -1.6000    0.0000 H   0  0  0  0  0  0  0  0  0  0  0  0
    4.8000    1.6000    0.0000 H   0  0  0  0  0  0  0  0  0  0  0  0
    3.2001   -1.6000    0.0000 H   0  0  0  0  0  0  0  0  0  0  0  0
    3.2001    1.6000    0.0000 H   0  0  0  0  0  0  0  0  0  0  0  0
    1.6000   -1.6000    0.0000 H   0  0  0  0  0  0  0  0  0  0  0  0
    1.6000    1.6000    0.0000 H   0  0  0  0  0  0  0  0  0  0  0  0
    0.0001    1.6000    0.0000 H   0  0  0  0  0  0  0  0  0  0  0  0
    0.0001   -1.6000    0.0000 H   0  0  0  0  0  0  0  0  0  0  0  0
   -1.6001   -1.6000    0.0000 H   0  0  0  0  0  0  0  0  0  0  0  0
   -1.6001    1.6000    0.0000 H   0  0  0  0  0  0  0  0  0  0  0  0
   -3.2000    1.6000    0.0000 H   0  0  0  0  0  0  0  0  0  0  0  0
   -3.2000   -1.6000    0.0000 H   0  0  0  0  0  0  0  0  0  0  0  0
   -6.4000   -0.0000    0.0000 H   0  0  0  0  0  0  0  0  0  0  0  0
   -5.6000   -1.3856    0.0000 H   0  0  0  0  0  0  0  0  0  0  0  0
   -5.6000    1.3856    0.0000 H   0  0  0  0  0  0  0  0  0  0  0  0
  1  2  1  0  0  0  0
  2  3  1  0  0  0  0
  3  4  1  0  0  0  0
  4  5  1  0  0  0  0
  5  6  1  0  0  0  0
  6  7  1  0  0  0  0
  7  8  1  0  0  0  0
  8  9  1  0  0  0  0
  9 10  1  0  0  0  0
  9 11  1  0  0  0  0
  9 12  1  0  0  0  0
  8 13  2  0  0  0  0
  7 14  1  0  0  0  0
  7 15  1  0  0  0  0
  6 16  1  0  0  0  0
  6 17  1  0  0  0  0
  5 18  1  0  0  0  0
  5 19  1  0  0  0  0
  4 20  1  0  0  0  0
  4 21  1  0  0  0  0
  3 22  1  0  0  0  0
  3 23  1  0  0  0  0
  2 24  1  0  0  0  0
  2 25  1  0  0  0  0
  1 26  1  0  0  0  0
  1 27  1  0  0  0  0
  1 28  1  0  0  0  0
M  END
> <CAS>
821-55-6

> <NAME>
2-NONANONE

> <preferred_name>
2-Nonanone

> <iupac>
nonan-2-one

> <SMILES>
CCCCCCCC(C)=O

> <Canonical_QSARr>
CCCCCCCC(C)=O

> <InChI_Code_QSARr>
InChI=1S/C9H18O/c1-3-4-5-6-7-8-9(2)10/h3-8H2,1-2H3

> <InChI Key_QSARr>
VKCYHJWLYTUGCC-UHFFFAOYSA-N

> <Salt_Solvent>
?

> <WS Temperature>
25

> <WS Reference>
WASIK,SP ET AL. (1981)

> <dsstox_substance_id>
DTXSID2022125

> <LogMolar>
-2.5836

$$$$
829-26-5
  -INDIGO-01081615412D

 27 28  0  0  0  0  0  0  0  0999 V2000
    0.0001   -0.0000    0.0000 C   0  0  0  0  0  0  0  0  0  0  0  0
   -1.3856    0.8000    0.0000 C   0  0  0  0  0  0  0  0  0  0  0  0
   -1.3856    2.4000    0.0000 H   0  0  0  0  0  0  0  0  0  0  0  0
   -2.7712   -0.0000    0.0000 C   0  0  0  0  0  0  0  0  0  0  0  0
   -4.1569    0.8000    0.0000 C   0  0  0  0  0  0  0  0  0  0  0  0
   -5.5426    1.6000    0.0000 H   0  0  0  0  0  0  0  0  0  0  0  0
   -5.5426   -0.0000    0.0000 H   0  0  0  0  0  0  0  0  0  0  0  0
   -4.1569    2.4000    0.0000 H   0  0  0  0  0  0  0  0  0  0  0  0
   -2.7712   -1.6000    0.0000 C   0  0  0  0  0  0  0  0  0  0  0  0
   -4.1569   -2.4000    0.0000 H   0  0  0  0  0  0  0  0  0  0  0  0
   -1.3856   -2.4000    0.0000 C   0  0  0  0  0  0  0  0  0  0  0  0
   -1.3856   -4.0000    0.0000 H   0  0  0  0  0  0  0  0  0  0  0  0
    0.0001   -1.6000    0.0000 C   0  0  0  0  0  0  0  0  0  0  0  0
    1.3856   -2.4000    0.0000 C   0  0  0  0  0  0  0  0  0  0  0  0
    1.3856   -4.0000    0.0000 H   0  0  0  0  0  0  0  0  0  0  0  0
    2.7712   -1.6000    0.0000 C   0  0  0  0  0  0  0  0  0  0  0  0
    4.1569   -2.4000    0.0000 C   0  0  0  0  0  0  0  0  0  0  0  0
    5.5426   -3.2000    0.0000 H   0  0  0  0  0  0  0  0  0  0  0  0
    4.1569   -4.0000    0.0000 H   0  0  0  0  0  0  0  0  0  0  0  0
    5.5426   -1.6000    0.0000 H   0  0  0  0  0  0  0  0  0  0  0  0
    2.7712   -0.0000    0.0000 C   0  0  0  0  0  0  0  0  0  0  0  0
    4.1569    0.8000    0.0000 C   0  0  0  0  0  0  0  0  0  0  0  0
    5.5426    1.6000    0.0000 H   0  0  0  0  0  0  0  0  0  0  0  0
    5.5426   -0.0000    0.0000 H   0  0  0  0  0  0  0  0  0  0  0  0
    4.1569    2.4000    0.0000 H   0  0  0  0  0  0  0  0  0  0  0  0
    1.3856    0.8000    0.0000 C   0  0  0  0  0  0  0  0  0  0  0  0
    1.3856    2.4000    0.0000 H   0  0  0  0  0  0  0  0  0  0  0  0
  1  2  4  0  0  0  0
  2  3  1  0  0  0  0
  2  4  4  0  0  0  0
  4  5  1  0  0  0  0
  5  6  1  0  0  0  0
  5  7  1  0  0  0  0
  5  8  1  0  0  0  0
  4  9  4  0  0  0  0
  9 10  1  0  0  0  0
  9 11  4  0  0  0  0
 11 12  1  0  0  0  0
 11 13  4  0  0  0  0
 13  1  4  0  0  0  0
 13 14  4  0  0  0  0
 14 15  1  0  0  0  0
 14 16  4  0  0  0  0
 16 17  1  0  0  0  0
 17 18  1  0  0  0  0
 17 19  1  0  0  0  0
 17 20  1  0  0  0  0
 16 21  4  0  0  0  0
 21 22  1  0  0  0  0
 22 23  1  0  0  0  0
 22 24  1  0  0  0  0
 22 25  1  0  0  0  0
 21 26  4  0  0  0  0
 26  1  4  0  0  0  0
 26 27  1  0  0  0  0
M  END
> <CAS>
829-26-5

> <NAME>
2,3,6-TRIMETHYLNAPHTHALENE

> <preferred_name>
2,3,6-Trimethylnaphthalene

> <iupac>
2,3,6-Trimethylnaphthalene

> <SMILES>
Cc1cc2cc(C)c(C)cc2cc1

> <Canonical_QSARr>
Cc1cc2cc(C)c(C)cc2cc1

> <InChI_Code_QSARr>
InChI=1S/C13H14/c1-9-4-5-12-7-10(2)11(3)8-13(12)6-9/h4-8H,1-3H3

> <InChI Key_QSARr>
UNBZRJCHIWTUHB-UHFFFAOYSA-N

> <Salt_Solvent>
?

> <WS Temperature>
22

> <WS Reference>
EPA

> <dsstox_substance_id>
DTXSID8061189

> <LogMolar>
-5.0007

$$$$
834-12-8
  -INDIGO-01081615412D

 32 32  0  0  0  0  0  0  0  0999 V2000
   -0.8001    1.3857    0.0000 C   0  0  0  0  0  0  0  0  0  0  0  0
    0.0000   -0.0000    0.0000 C   0  0  0  0  0  0  0  0  0  0  0  0
    1.3855    0.8000    0.0000 N   0  0  0  0  0  0  0  0  0  0  0  0
    2.7713   -0.0000    0.0000 C   0  0  0  0  0  0  0  0  0  0  0  0
    2.7713   -1.6000    0.0000 N   0  0  0  1  0  0  0  0  0  0  0  0
    4.1570   -2.4000    0.0000 C   0  0  0  0  0  0  0  0  0  0  0  0
    4.1570   -3.9999    0.0000 S   0  0  0  0  0  0  0  0  0  0  0  0
    5.5426   -4.8000    0.0000 C   0  0  0  0  0  0  0  0  0  0  0  0
    5.5426   -6.4000    0.0000 H   0  0  0  0  0  0  0  0  0  0  0  0
    6.9283   -5.5999    0.0000 H   0  0  0  0  0  0  0  0  0  0  0  0
    4.1570   -5.5999    0.0000 H   0  0  0  0  0  0  0  0  0  0  0  0
    5.5426   -1.6000    0.0000 N   0  0  0  1  0  0  0  0  0  0  0  0
    5.5426   -0.0000    0.0000 C   0  0  0  0  0  0  0  0  0  0  0  0
    6.9283    0.8000    0.0000 N   0  0  0  0  0  0  0  0  0  0  0  0
    8.3138   -0.0000    0.0000 C   0  0  0  0  0  0  0  0  0  0  0  0
    9.6996   -0.8000    0.0000 C   0  0  0  0  0  0  0  0  0  0  0  0
   11.0851   -1.6000    0.0000 H   0  0  0  0  0  0  0  0  0  0  0  0
   11.0851   -0.0000    0.0000 H   0  0  0  0  0  0  0  0  0  0  0  0
    9.6996   -2.4000    0.0000 H   0  0  0  0  0  0  0  0  0  0  0  0
    9.1139    1.3857    0.0000 H   0  0  0  0  0  0  0  0  0  0  0  0
    7.5138   -1.3856    0.0000 H   0  0  0  0  0  0  0  0  0  0  0  0
    6.9283    2.4000    0.0000 H   0  0  0  0  0  0  0  0  0  0  0  0
    4.1570    0.8000    0.0000 N   0  0  0  1  0  0  0  0  0  0  0  0
    1.3855    2.4000    0.0000 H   0  0  0  0  0  0  0  0  0  0  0  0
   -1.3855   -0.8000    0.0000 C   0  0  0  0  0  0  0  0  0  0  0  0
   -2.7713   -1.6000    0.0000 H   0  0  0  0  0  0  0  0  0  0  0  0
   -2.7713   -0.0000    0.0000 H   0  0  0  0  0  0  0  0  0  0  0  0
   -1.3855   -2.4000    0.0000 H   0  0  0  0  0  0  0  0  0  0  0  0
    0.8001   -1.3856    0.0000 H   0  0  0  0  0  0  0  0  0  0  0  0
   -1.5999    2.7713    0.0000 H   0  0  0  0  0  0  0  0  0  0  0  0
   -2.4000    1.3857    0.0000 H   0  0  0  0  0  0  0  0  0  0  0  0
    0.0000    2.7713    0.0000 H   0  0  0  0  0  0  0  0  0  0  0  0
  1  2  1  0  0  0  0
  2  3  1  0  0  0  0
  3  4  1  0  0  0  0
  4  5  4  0  0  0  0
  5  6  4  0  0  0  0
  6  7  1  0  0  0  0
  7  8  1  0  0  0  0
  8  9  1  0  0  0  0
  8 10  1  0  0  0  0
  8 11  1  0  0  0  0
  6 12  4  0  0  0  0
 12 13  4  0  0  0  0
 13 14  1  0  0  0  0
 14 15  1  0  0  0  0
 15 16  1  0  0  0  0
 16 17  1  0  0  0  0
 16 18  1  0  0  0  0
 16 19  1  0  0  0  0
 15 20  1  0  0  0  0
 15 21  1  0  0  0  0
 14 22  1  0  0  0  0
 13 23  4  0  0  0  0
 23  4  4  0  0  0  0
  3 24  1  0  0  0  0
  2 25  1  0  0  0  0
 25 26  1  0  0  0  0
 25 27  1  0  0  0  0
 25 28  1  0  0  0  0
  2 29  1  0  0  0  0
  1 30  1  0  0  0  0
  1 31  1  0  0  0  0
  1 32  1  0  0  0  0
M  END
> <CAS>
834-12-8

> <NAME>
AMETRYNE

> <preferred_name>
Ametryn

> <iupac>
N-ethyl-6-(methylsulfanyl)-N'-(propan-2-yl)-1,3,5-triazine-2,4-diamine

> <SMILES>
CCNc1[n]c(NC(C)C)[n]c([n]1)SC

> <Canonical_QSARr>
CCNc1[n]c(NC(C)C)[n]c([n]1)SC

> <InChI_Code_QSARr>
InChI=1S/C9H17N5S/c1-5-10-7-12-8(11-6(2)3)14-9(13-7)15-4/h6H,5H2,1-4H3,(H2,10,11,12,13,14)

> <InChI Key_QSARr>
RQVYBGPQFYCBGX-UHFFFAOYSA-N

> <Salt_Solvent>
?

> <WS Temperature>
25

> <WS Reference>
YALKOWSKY,SH & HE,Y (2003)

> <dsstox_substance_id>
DTXSID1023869

> <LogMolar>
-3.0365

$$$$
846-49-1
  -INDIGO-01081615412D

 31 33  0  0  0  0  0  0  0  0999 V2000
   -2.7713    1.5999    0.0000 C   0  0  0  0  0  0  0  0  0  0  0  0
   -2.7713    0.0001    0.0000 C   0  0  0  0  0  0  0  0  0  0  0  0
   -4.1569   -0.8000    0.0000 H   0  0  0  0  0  0  0  0  0  0  0  0
   -1.3856   -0.8000    0.0000 C   0  0  0  0  0  0  0  0  0  0  0  0
   -1.6242   -2.3821    0.0000 N   0  0  0  0  0  0  0  0  0  0  0  0
   -0.5358   -3.5550    0.0000 C   0  0  0  0  0  0  0  0  0  0  0  0
    1.0597   -3.4354    0.0000 C   0  0  0  0  0  0  0  0  0  0  0  0
    1.9610   -2.1135    0.0000 N   0  0  0  0  0  0  0  0  0  0  0  0
    1.4894   -0.5845    0.0000 C   0  0  0  0  0  0  0  0  0  0  0  0
    2.8335    0.2835    0.0000 C   0  0  0  0  0  0  0  0  0  0  0  0
    3.3050    1.8125    0.0000 C   0  0  0  0  0  0  0  0  0  0  0  0
    2.4369    3.1564    0.0000 Cl  0  0  0  0  0  0  0  0  0  0  0  0
    4.8650    2.1684    0.0000 C   0  0  0  0  0  0  0  0  0  0  0  0
    5.3365    3.6974    0.0000 H   0  0  0  0  0  0  0  0  0  0  0  0
    5.9532    0.9955    0.0000 C   0  0  0  0  0  0  0  0  0  0  0  0
    7.5131    1.3516    0.0000 H   0  0  0  0  0  0  0  0  0  0  0  0
    5.4816   -0.5333    0.0000 C   0  0  0  0  0  0  0  0  0  0  0  0
    6.5698   -1.7062    0.0000 H   0  0  0  0  0  0  0  0  0  0  0  0
    3.9217   -0.8894    0.0000 C   0  0  0  0  0  0  0  0  0  0  0  0
    3.4502   -2.4182    0.0000 H   0  0  0  0  0  0  0  0  0  0  0  0
    0.0000    0.0001    0.0000 C   0  0  0  0  0  0  0  0  0  0  0  0
    0.0000    1.5999    0.0000 C   0  0  0  0  0  0  0  0  0  0  0  0
    1.5035    2.1472    0.0000 H   0  0  0  0  0  0  0  0  0  0  0  0
   -1.3856    2.4000    0.0000 C   0  0  0  0  0  0  0  0  0  0  0  0
   -1.3856    4.0000    0.0000 Cl  0  0  0  0  0  0  0  0  0  0  0  0
    0.8213   -5.0175    0.0000 O   0  0  0  0  0  0  0  0  0  0  0  0
    2.0721   -6.0152    0.0000 H   0  0  0  0  0  0  0  0  0  0  0  0
    2.5491   -4.0199    0.0000 H   0  0  0  0  0  0  0  0  0  0  0  0
   -1.1204   -5.0444    0.0000 O   0  0  0  0  0  0  0  0  0  0  0  0
   -3.1529   -2.8537    0.0000 H   0  0  0  0  0  0  0  0  0  0  0  0
   -4.1569    2.4000    0.0000 H   0  0  0  0  0  0  0  0  0  0  0  0
  1  2  4  0  0  0  0
  2  3  1  0  0  0  0
  2  4  4  0  0  0  0
  4  5  1  0  0  0  0
  5  6  1  0  0  0  0
  6  7  1  0  0  0  0
  7  8  1  0  0  0  0
  8  9  2  0  0  0  0
  9 10  1  0  0  0  0
 10 11  4  0  0  0  0
 11 12  1  0  0  0  0
 11 13  4  0  0  0  0
 13 14  1  0  0  0  0
 13 15  4  0  0  0  0
 15 16  1  0  0  0  0
 15 17  4  0  0  0  0
 17 18  1  0  0  0  0
 17 19  4  0  0  0  0
 19 10  4  0  0  0  0
 19 20  1  0  0  0  0
  9 21  1  0  0  0  0
 21  4  4  0  0  0  0
 21 22  4  0  0  0  0
 22 23  1  0  0  0  0
 22 24  4  0  0  0  0
 24  1  4  0  0  0  0
 24 25  1  0  0  0  0
  7 26  1  0  0  0  0
 26 27  1  0  0  0  0
  7 28  1  0  0  0  0
  6 29  2  0  0  0  0
  5 30  1  0  0  0  0
  1 31  1  0  0  0  0
M  END
> <CAS>
846-49-1

> <NAME>
LORAZEPAM

> <preferred_name>
Lorazepam

> <iupac>
7-chloro-5-(2-chlorophenyl)-3-hydroxy-1,3-dihydro-2H-1,4-benzodiazepin-2-one

> <SMILES>
OC1N=C(c2cc(Cl)ccc2NC1=O)c1ccccc1Cl

> <Canonical_QSARr>
OC1N=C(c2cc(Cl)ccc2NC1=O)c1ccccc1Cl

> <InChI_Code_QSARr>
InChI=1S/C15H10Cl2N2O2/c16-8-5-6-12-10(7-8)13(19-15(21)14(20)18-12)9-3-1-2-4-11(9)17/h1-7,15,21H,(H,18,20)

> <InChI Key_QSARr>
DIWRORZWFLOCLC-UHFFFAOYSA-N

> <Salt_Solvent>
?

> <WS Temperature>


> <WS Reference>
MERCK INDEX (1996)

> <dsstox_substance_id>
DTXSID7023225

> <LogMolar>
-3.6036

$$$$
868-77-9
  -INDIGO-01081615412D

 19 18  0  0  0  0  0  0  0  0999 V2000
   -4.1569    2.4000    0.0000 C   0  0  0  0  0  0  0  0  0  0  0  0
   -4.1569    0.8000    0.0000 C   0  0  0  0  0  0  0  0  0  0  0  0
   -2.7712    0.0000    0.0000 C   0  0  0  0  0  0  0  0  0  0  0  0
   -1.3857    0.8000    0.0000 O   0  0  0  0  0  0  0  0  0  0  0  0
   -0.0001    0.0000    0.0000 C   0  0  0  0  0  0  0  0  0  0  0  0
    1.3856   -0.8000    0.0000 C   0  0  0  0  0  0  0  0  0  0  0  0
    2.7713   -1.6000    0.0000 O   0  0  0  0  0  0  0  0  0  0  0  0
    4.1569   -0.8000    0.0000 H   0  0  0  0  0  0  0  0  0  0  0  0
    0.5857   -2.1856    0.0000 H   0  0  0  0  0  0  0  0  0  0  0  0
    2.1857    0.5856    0.0000 H   0  0  0  0  0  0  0  0  0  0  0  0
    0.8000    1.3856    0.0000 H   0  0  0  0  0  0  0  0  0  0  0  0
   -0.8000   -1.3856    0.0000 H   0  0  0  0  0  0  0  0  0  0  0  0
   -2.7712   -1.6000    0.0000 O   0  0  0  0  0  0  0  0  0  0  0  0
   -5.5425    0.0000    0.0000 C   0  0  0  0  0  0  0  0  0  0  0  0
   -6.9282   -0.8000    0.0000 H   0  0  0  0  0  0  0  0  0  0  0  0
   -6.9282    0.8000    0.0000 H   0  0  0  0  0  0  0  0  0  0  0  0
   -5.5425   -1.6000    0.0000 H   0  0  0  0  0  0  0  0  0  0  0  0
   -5.5425    3.2000    0.0000 H   0  0  0  0  0  0  0  0  0  0  0  0
   -2.7712    3.2000    0.0000 H   0  0  0  0  0  0  0  0  0  0  0  0
  1  2  2  0  0  0  0
  2  3  1  0  0  0  0
  3  4  1  0  0  0  0
  4  5  1  0  0  0  0
  5  6  1  0  0  0  0
  6  7  1  0  0  0  0
  7  8  1  0  0  0  0
  6  9  1  0  0  0  0
  6 10  1  0  0  0  0
  5 11  1  0  0  0  0
  5 12  1  0  0  0  0
  3 13  2  0  0  0  0
  2 14  1  0  0  0  0
 14 15  1  0  0  0  0
 14 16  1  0  0  0  0
 14 17  1  0  0  0  0
  1 18  1  0  0  0  0
  1 19  1  0  0  0  0
M  END
> <CAS>
868-77-9

> <NAME>
2-HYDROXYETHYL METHACRYLATE

> <preferred_name>
2-Hydroxyethyl methacrylate

> <iupac>
2-hydroxyethyl 2-methylprop-2-enoate

> <SMILES>
CC(=C)C(=O)OCCO

> <Canonical_QSARr>
CC(=C)C(=O)OCCO

> <InChI_Code_QSARr>
InChI=1S/C6H10O3/c1-5(2)6(8)9-4-3-7/h7H,1,3-4H2,2H3

> <InChI Key_QSARr>
WOBHKFSMXKNTIM-UHFFFAOYSA-N

> <Salt_Solvent>
?

> <WS Temperature>
25

> <WS Reference>
CHEMICALS INSPECTION AND TESTING INSTITU (1992)

> <dsstox_substance_id>
DTXSID7022128

> <LogMolar>
-0.1144

$$$$
872-50-4
  -INDIGO-01081615412D

 16 16  0  0  0  0  0  0  0  0999 V2000
    2.3831    3.3856    0.0000 O   0  0  0  0  0  0  0  0  0  0  0  0
    1.7323    1.9239    0.0000 C   0  0  0  0  0  0  0  0  0  0  0  0
    0.1673    1.5912    0.0000 C   0  0  0  0  0  0  0  0  0  0  0  0
    0.0000    3.1825    0.0000 H   0  0  0  0  0  0  0  0  0  0  0  0
   -1.4327    1.5912    0.0000 H   0  0  0  0  0  0  0  0  0  0  0  0
    0.0000    0.0000    0.0000 C   0  0  0  0  0  0  0  0  0  0  0  0
   -1.5650    0.3327    0.0000 H   0  0  0  0  0  0  0  0  0  0  0  0
   -0.4944   -1.5217    0.0000 H   0  0  0  0  0  0  0  0  0  0  0  0
    1.4616   -0.6508    0.0000 C   0  0  0  0  0  0  0  0  0  0  0  0
    0.6617   -2.0364    0.0000 H   0  0  0  0  0  0  0  0  0  0  0  0
    2.7561   -1.5912    0.0000 H   0  0  0  0  0  0  0  0  0  0  0  0
    2.5322    0.5383    0.0000 N   0  0  0  0  0  0  0  0  0  0  0  0
    4.1235    0.3710    0.0000 C   0  0  0  0  0  0  0  0  0  0  0  0
    5.7148    0.2038    0.0000 H   0  0  0  0  0  0  0  0  0  0  0  0
    5.0639    1.6654    0.0000 H   0  0  0  0  0  0  0  0  0  0  0  0
    4.7743   -1.0907    0.0000 H   0  0  0  0  0  0  0  0  0  0  0  0
  1  2  2  0  0  0  0
  2  3  1  0  0  0  0
  3  4  1  0  0  0  0
  3  5  1  0  0  0  0
  3  6  1  0  0  0  0
  6  7  1  0  0  0  0
  6  8  1  0  0  0  0
  6  9  1  0  0  0  0
  9 10  1  0  0  0  0
  9 11  1  0  0  0  0
  9 12  1  0  0  0  0
 12  2  1  0  0  0  0
 12 13  1  0  0  0  0
 13 14  1  0  0  0  0
 13 15  1  0  0  0  0
 13 16  1  0  0  0  0
M  END
> <CAS>
872-50-4

> <NAME>
N-METHYLPYRROLIDONE

> <preferred_name>
N-Methyl-2-pyrrolidone

> <iupac>
1-methylpyrrolidin-2-one

> <SMILES>
CN1CCCC1=O

> <Canonical_QSARr>
CN1CCCC1=O

> <InChI_Code_QSARr>
InChI=1S/C5H9NO/c1-6-4-2-3-5(6)7/h2-4H2,1H3

> <InChI Key_QSARr>
SECXISVLQFMRJM-UHFFFAOYSA-N

> <Salt_Solvent>
?

> <WS Temperature>
25

> <WS Reference>
RIDDICK,JA ET AL. (1986)

> <dsstox_substance_id>
DTXSID6020856

> <LogMolar>
1.0038

$$$$
879-39-0
  -INDIGO-01081615412D

 14 14  0  0  0  0  0  0  0  0999 V2000
    1.6000    0.0000    0.0000 N   0  0  0  0  0  0  0  0  0  0  0  0
    0.0000   -0.0000    0.0000 C   0  0  0  0  0  0  0  0  0  0  0  0
   -0.8000    1.3856    0.0000 C   0  0  0  0  0  0  0  0  0  0  0  0
    0.0000    2.7713    0.0000 Cl  0  0  0  0  0  0  0  0  0  0  0  0
   -2.4000    1.3856    0.0000 C   0  0  0  0  0  0  0  0  0  0  0  0
   -3.2000    2.7713    0.0000 Cl  0  0  0  0  0  0  0  0  0  0  0  0
   -3.2000   -0.0000    0.0000 C   0  0  0  0  0  0  0  0  0  0  0  0
   -4.8000   -0.0000    0.0000 Cl  0  0  0  0  0  0  0  0  0  0  0  0
   -2.4000   -1.3856    0.0000 C   0  0  0  0  0  0  0  0  0  0  0  0
   -3.2000   -2.7713    0.0000 Cl  0  0  0  0  0  0  0  0  0  0  0  0
   -0.8000   -1.3856    0.0000 C   0  0  0  0  0  0  0  0  0  0  0  0
    0.0000   -2.7713    0.0000 H   0  0  0  0  0  0  0  0  0  0  0  0
    2.4000   -1.3856    0.0000 O   0  0  0  0  0  0  0  0  0  0  0  0
    2.4000    1.3856    0.0000 O   0  0  0  0  0  0  0  0  0  0  0  0
  1  2  1  0  0  0  0
  2  3  4  0  0  0  0
  3  4  1  0  0  0  0
  3  5  4  0  0  0  0
  5  6  1  0  0  0  0
  5  7  4  0  0  0  0
  7  8  1  0  0  0  0
  7  9  4  0  0  0  0
  9 10  1  0  0  0  0
  9 11  4  0  0  0  0
 11  2  4  0  0  0  0
 11 12  1  0  0  0  0
  1 13  1  0  0  0  0
  1 14  2  0  0  0  0
M  CHG  2   1   1  13  -1
M  END
> <CAS>
879-39-0

> <NAME>
2,3,4,5-TETRACHLORONITROBENZENE

> <preferred_name>
2,3,4,5-Tetrachloronitrobenzene

> <iupac>
1,2,3,4-tetrachloro-5-nitrobenzene

> <SMILES>
[O-][N+](=O)c1cc(Cl)c(Cl)c(Cl)c1Cl

> <Canonical_QSARr>
[O-][N+](=O)c1cc(Cl)c(Cl)c(Cl)c1Cl

> <InChI_Code_QSARr>
InChI=1S/C6HCl4NO2/c7-2-1-3(11(12)13)5(9)6(10)4(2)8/h1H

> <InChI Key_QSARr>
MTBYTWZDRVOMBR-UHFFFAOYSA-N

> <Salt_Solvent>
?

> <WS Temperature>
20

> <WS Reference>
YALKOWSKY,SH & DANNENFELSER,RM (1992)

> <dsstox_substance_id>
DTXSID5026097

> <LogMolar>
-4.5531

$$$$
892-21-7
  -INDIGO-01081615412D

 28 31  0  0  0  0  0  0  0  0999 V2000
    0.0000    0.0001    0.0000 C   0  0  0  0  0  0  0  0  0  0  0  0
   -1.6000   -0.0001    0.0000 C   0  0  0  0  0  0  0  0  0  0  0  0
   -2.4000   -1.3856    0.0000 C   0  0  0  0  0  0  0  0  0  0  0  0
   -1.6000   -2.7712    0.0000 C   0  0  0  0  0  0  0  0  0  0  0  0
    0.0000   -2.7712    0.0000 C   0  0  0  0  0  0  0  0  0  0  0  0
    0.8000   -4.1569    0.0000 H   0  0  0  0  0  0  0  0  0  0  0  0
    0.8000   -1.3856    0.0000 C   0  0  0  0  0  0  0  0  0  0  0  0
    2.2890   -0.8000    0.0000 C   0  0  0  0  0  0  0  0  0  0  0  0
    2.2890    0.8000    0.0000 C   0  0  0  0  0  0  0  0  0  0  0  0
    0.8000    1.3856    0.0000 C   0  0  0  0  0  0  0  0  0  0  0  0
    0.0000    2.7713    0.0000 C   0  0  0  0  0  0  0  0  0  0  0  0
   -1.6000    2.7713    0.0000 C   0  0  0  0  0  0  0  0  0  0  0  0
   -2.4000    1.3856    0.0000 C   0  0  0  0  0  0  0  0  0  0  0  0
   -4.0000    1.3856    0.0000 H   0  0  0  0  0  0  0  0  0  0  0  0
   -2.4000    4.1569    0.0000 H   0  0  0  0  0  0  0  0  0  0  0  0
    0.8000    4.1569    0.0000 H   0  0  0  0  0  0  0  0  0  0  0  0
    3.6745    1.6000    0.0000 C   0  0  0  0  0  0  0  0  0  0  0  0
    3.6745    3.2000    0.0000 H   0  0  0  0  0  0  0  0  0  0  0  0
    5.0602    0.8000    0.0000 C   0  0  0  0  0  0  0  0  0  0  0  0
    6.4459    1.6000    0.0000 H   0  0  0  0  0  0  0  0  0  0  0  0
    5.0602   -0.8000    0.0000 C   0  0  0  0  0  0  0  0  0  0  0  0
    6.4459   -1.6000    0.0000 H   0  0  0  0  0  0  0  0  0  0  0  0
    3.6745   -1.6000    0.0000 C   0  0  0  0  0  0  0  0  0  0  0  0
    3.6745   -3.2000    0.0000 H   0  0  0  0  0  0  0  0  0  0  0  0
   -2.4000   -4.1569    0.0000 H   0  0  0  0  0  0  0  0  0  0  0  0
   -4.0000   -1.3856    0.0000 N   0  0  0  0  0  0  0  0  0  0  0  0
   -4.8000   -2.7712    0.0000 O   0  0  0  0  0  0  0  0  0  0  0  0
   -4.8000    0.0001    0.0000 O   0  0  0  0  0  0  0  0  0  0  0  0
  1  2  4  0  0  0  0
  2  3  4  0  0  0  0
  3  4  4  0  0  0  0
  4  5  4  0  0  0  0
  5  6  1  0  0  0  0
  5  7  4  0  0  0  0
  7  1  4  0  0  0  0
  7  8  1  0  0  0  0
  8  9  4  0  0  0  0
  9 10  1  0  0  0  0
 10  1  4  0  0  0  0
 10 11  4  0  0  0  0
 11 12  4  0  0  0  0
 12 13  4  0  0  0  0
 13  2  4  0  0  0  0
 13 14  1  0  0  0  0
 12 15  1  0  0  0  0
 11 16  1  0  0  0  0
  9 17  4  0  0  0  0
 17 18  1  0  0  0  0
 17 19  4  0  0  0  0
 19 20  1  0  0  0  0
 19 21  4  0  0  0  0
 21 22  1  0  0  0  0
 21 23  4  0  0  0  0
 23  8  4  0  0  0  0
 23 24  1  0  0  0  0
  4 25  1  0  0  0  0
  3 26  1  0  0  0  0
 26 27  1  0  0  0  0
 26 28  2  0  0  0  0
M  CHG  2  26   1  27  -1
M  END
> <CAS>
892-21-7

> <NAME>
3-Nitrofluoranthene

> <preferred_name>
3-Nitrofluoranthene

> <iupac>
3-NITROFLUORANTHENE

> <SMILES>
[O-][N+](=O)c1ccc2c3c(cccc13)-c1ccccc1-2

> <Canonical_QSARr>
[O-][N+](=O)c1ccc2c3c(cccc13)-c1ccccc1-2

> <InChI_Code_QSARr>
InChI=1S/C16H9NO2/c18-17(19)15-9-8-13-11-5-2-1-4-10(11)12-6-3-7-14(15)16(12)13/h1-9H

> <InChI Key_QSARr>
PIHGQKMEAMSUNA-UHFFFAOYSA-N

> <Salt_Solvent>
?

> <WS Temperature>
25

> <WS Reference>
GANG,Y & XIAOBAI,XU (1992)

> <dsstox_substance_id>
DTXSID0074976

> <LogMolar>
-7.1031

$$$$
919-94-8
  -INDIGO-01081615412D

 24 23  0  0  0  0  0  0  0  0999 V2000
   -0.0000    0.0000    0.0000 C   0  0  0  0  0  0  0  0  0  0  0  0
   -0.8001    1.3856    0.0000 C   0  0  0  0  0  0  0  0  0  0  0  0
   -1.6000    2.7713    0.0000 H   0  0  0  0  0  0  0  0  0  0  0  0
   -2.4000    1.3856    0.0000 H   0  0  0  0  0  0  0  0  0  0  0  0
   -0.0000    2.7713    0.0000 H   0  0  0  0  0  0  0  0  0  0  0  0
    1.3856    0.8000    0.0000 C   0  0  0  0  0  0  0  0  0  0  0  0
    2.7713    1.6000    0.0000 H   0  0  0  0  0  0  0  0  0  0  0  0
    1.3856    2.4000    0.0000 H   0  0  0  0  0  0  0  0  0  0  0  0
    2.8891    0.2528    0.0000 H   0  0  0  0  0  0  0  0  0  0  0  0
    0.8000   -1.3856    0.0000 C   0  0  0  0  0  0  0  0  0  0  0  0
    1.6001   -2.7713    0.0000 C   0  0  0  0  0  0  0  0  0  0  0  0
    2.4000   -4.1569    0.0000 H   0  0  0  0  0  0  0  0  0  0  0  0
    0.8000   -4.1569    0.0000 H   0  0  0  0  0  0  0  0  0  0  0  0
    3.2000   -2.7713    0.0000 H   0  0  0  0  0  0  0  0  0  0  0  0
   -0.5856   -2.1856    0.0000 H   0  0  0  0  0  0  0  0  0  0  0  0
    2.3035   -0.8384    0.0000 H   0  0  0  0  0  0  0  0  0  0  0  0
   -1.3857   -0.8000    0.0000 O   0  0  0  0  0  0  0  0  0  0  0  0
   -2.9613   -1.0778    0.0000 C   0  0  0  0  0  0  0  0  0  0  0  0
   -4.5371   -1.3557    0.0000 C   0  0  0  0  0  0  0  0  0  0  0  0
   -6.1127   -1.6335    0.0000 H   0  0  0  0  0  0  0  0  0  0  0  0
   -5.0843   -2.8591    0.0000 H   0  0  0  0  0  0  0  0  0  0  0  0
   -5.5655   -0.1300    0.0000 H   0  0  0  0  0  0  0  0  0  0  0  0
   -2.6835   -2.6535    0.0000 H   0  0  0  0  0  0  0  0  0  0  0  0
   -3.2391    0.4978    0.0000 H   0  0  0  0  0  0  0  0  0  0  0  0
  1  2  1  0  0  0  0
  2  3  1  0  0  0  0
  2  4  1  0  0  0  0
  2  5  1  0  0  0  0
  1  6  1  0  0  0  0
  6  7  1  0  0  0  0
  6  8  1  0  0  0  0
  6  9  1  0  0  0  0
  1 10  1  0  0  0  0
 10 11  1  0  0  0  0
 11 12  1  0  0  0  0
 11 13  1  0  0  0  0
 11 14  1  0  0  0  0
 10 15  1  0  0  0  0
 10 16  1  0  0  0  0
  1 17  1  0  0  0  0
 17 18  1  0  0  0  0
 18 19  1  0  0  0  0
 19 20  1  0  0  0  0
 19 21  1  0  0  0  0
 19 22  1  0  0  0  0
 18 23  1  0  0  0  0
 18 24  1  0  0  0  0
M  END
> <CAS>
919-94-8

> <NAME>
ETHYL(TERT-AMYL) ETHER

> <preferred_name>
Butane, 2-ethoxy-2-methyl-

> <iupac>
2-Ethoxy-2-methylbutane

> <SMILES>
CC(C)(CC)OCC

> <Canonical_QSARr>
CC(C)(CC)OCC

> <InChI_Code_QSARr>
InChI=1S/C7H16O/c1-5-7(3,4)8-6-2/h5-6H2,1-4H3

> <InChI Key_QSARr>
KFRVYYGHSPLXSZ-UHFFFAOYSA-N

> <Salt_Solvent>
?

> <WS Temperature>
20

> <WS Reference>
EVANS,TW & EDLUND,KR (1936)

> <dsstox_substance_id>
DTXSID7061279

> <LogMolar>
-2.4631

$$$$
924-42-5
  -INDIGO-01081615412D

 14 13  0  0  0  0  0  0  0  0999 V2000
    2.7713    1.6000    0.0000 O   0  0  0  0  0  0  0  0  0  0  0  0
    2.7713   -0.0000    0.0000 C   0  0  0  0  0  0  0  0  0  0  0  0
    4.1570   -0.8000    0.0000 C   0  0  0  0  0  0  0  0  0  0  0  0
    5.5426   -0.0000    0.0000 C   0  0  0  0  0  0  0  0  0  0  0  0
    6.9282   -0.8000    0.0000 H   0  0  0  0  0  0  0  0  0  0  0  0
    5.5426    1.6000    0.0000 H   0  0  0  0  0  0  0  0  0  0  0  0
    4.1570   -2.4000    0.0000 H   0  0  0  0  0  0  0  0  0  0  0  0
    1.3856   -0.8000    0.0000 N   0  0  0  0  0  0  0  0  0  0  0  0
   -0.0000   -0.0000    0.0000 C   0  0  0  0  0  0  0  0  0  0  0  0
   -1.3857    0.8000    0.0000 O   0  0  0  0  0  0  0  0  0  0  0  0
   -2.7713   -0.0000    0.0000 H   0  0  0  0  0  0  0  0  0  0  0  0
    0.8001    1.3856    0.0000 H   0  0  0  0  0  0  0  0  0  0  0  0
   -0.8000   -1.3856    0.0000 H   0  0  0  0  0  0  0  0  0  0  0  0
    1.3856   -2.4000    0.0000 H   0  0  0  0  0  0  0  0  0  0  0  0
  1  2  2  0  0  0  0
  2  3  1  0  0  0  0
  3  4  2  0  0  0  0
  4  5  1  0  0  0  0
  4  6  1  0  0  0  0
  3  7  1  0  0  0  0
  2  8  1  0  0  0  0
  8  9  1  0  0  0  0
  9 10  1  0  0  0  0
 10 11  1  0  0  0  0
  9 12  1  0  0  0  0
  9 13  1  0  0  0  0
  8 14  1  0  0  0  0
M  END
> <CAS>
924-42-5

> <NAME>
N-(Hydroxymethyl)acrylamide

> <preferred_name>
N-Methylolacrylamide

> <iupac>
N-(hydroxymethyl)prop-2-enamide

> <SMILES>
C=CC(=O)NCO

> <Canonical_QSARr>
C=CC(=O)NCO

> <InChI_Code_QSARr>
InChI=1S/C4H7NO2/c1-2-4(7)5-3-6/h2,6H,1,3H2,(H,5,7)

> <InChI Key_QSARr>
CNCOEDDPFOAUMB-UHFFFAOYSA-N

> <Salt_Solvent>
?

> <WS Temperature>
20

> <WS Reference>
HPV submission to EPA

> <dsstox_substance_id>
DTXSID3020885

> <LogMolar>
0.8101

$$$$
928-45-0
  -INDIGO-01081615412D

 17 16  0  0  0  0  0  0  0  0999 V2000
   -3.2001    0.0000    0.0000 O   0  0  0  0  0  0  0  0  0  0  0  0
   -1.6000    0.0000    0.0000 C   0  0  0  0  0  0  0  0  0  0  0  0
   -0.0000    0.0000    0.0000 C   0  0  0  0  0  0  0  0  0  0  0  0
    1.5999    0.0000    0.0000 C   0  0  0  0  0  0  0  0  0  0  0  0
    3.2000    0.0000    0.0000 C   0  0  0  0  0  0  0  0  0  0  0  0
    4.8000    0.0000    0.0000 H   0  0  0  0  0  0  0  0  0  0  0  0
    4.0000   -1.3856    0.0000 H   0  0  0  0  0  0  0  0  0  0  0  0
    4.0000    1.3856    0.0000 H   0  0  0  0  0  0  0  0  0  0  0  0
    1.5999   -1.6000    0.0000 H   0  0  0  0  0  0  0  0  0  0  0  0
    1.5999    1.6000    0.0000 H   0  0  0  0  0  0  0  0  0  0  0  0
   -0.0000    1.6000    0.0000 H   0  0  0  0  0  0  0  0  0  0  0  0
   -0.0000   -1.6000    0.0000 H   0  0  0  0  0  0  0  0  0  0  0  0
   -1.6000   -1.6000    0.0000 H   0  0  0  0  0  0  0  0  0  0  0  0
   -1.6000    1.6000    0.0000 H   0  0  0  0  0  0  0  0  0  0  0  0
   -4.0000   -1.3856    0.0000 N   0  0  0  0  0  0  0  0  0  0  0  0
   -5.6000   -1.3856    0.0000 O   0  0  0  0  0  0  0  0  0  0  0  0
   -3.2001   -2.7713    0.0000 O   0  0  0  0  0  0  0  0  0  0  0  0
  1  2  1  0  0  0  0
  2  3  1  0  0  0  0
  3  4  1  0  0  0  0
  4  5  1  0  0  0  0
  5  6  1  0  0  0  0
  5  7  1  0  0  0  0
  5  8  1  0  0  0  0
  4  9  1  0  0  0  0
  4 10  1  0  0  0  0
  3 11  1  0  0  0  0
  3 12  1  0  0  0  0
  2 13  1  0  0  0  0
  2 14  1  0  0  0  0
  1 15  1  0  0  0  0
 15 16  2  0  0  0  0
 15 17  1  0  0  0  0
M  CHG  2  15   1  17  -1
M  END
> <CAS>
928-45-0

> <NAME>
BUTYL NITRATE

> <preferred_name>
Butyl nitrate

> <iupac>
BUTYL NITRATE

> <SMILES>
CCCCO[N+]([O-])=O

> <Canonical_QSARr>
CCCCO[N+]([O-])=O

> <InChI_Code_QSARr>
InChI=1S/C4H9NO3/c1-2-3-4-8-5(6)7/h2-4H2,1H3

> <InChI Key_QSARr>
QQHZPQUHCAKSOL-UHFFFAOYSA-N

> <Salt_Solvent>
?

> <WS Temperature>
25

> <WS Reference>
HAUFF,K ET AL. (1998)

> <dsstox_substance_id>
DTXSID70239143

> <LogMolar>
-2.0268

$$$$
933-75-5
  -INDIGO-01081615412D

 13 13  0  0  0  0  0  0  0  0999 V2000
    1.6000    0.0000    0.0000 O   0  0  0  0  0  0  0  0  0  0  0  0
    0.0000   -0.0000    0.0000 C   0  0  0  0  0  0  0  0  0  0  0  0
   -0.8000    1.3856    0.0000 C   0  0  0  0  0  0  0  0  0  0  0  0
    0.0000    2.7713    0.0000 Cl  0  0  0  0  0  0  0  0  0  0  0  0
   -2.4000    1.3856    0.0000 C   0  0  0  0  0  0  0  0  0  0  0  0
   -3.2000    2.7713    0.0000 Cl  0  0  0  0  0  0  0  0  0  0  0  0
   -3.2000   -0.0000    0.0000 C   0  0  0  0  0  0  0  0  0  0  0  0
   -4.8000   -0.0000    0.0000 H   0  0  0  0  0  0  0  0  0  0  0  0
   -2.4000   -1.3856    0.0000 C   0  0  0  0  0  0  0  0  0  0  0  0
   -3.2000   -2.7713    0.0000 H   0  0  0  0  0  0  0  0  0  0  0  0
   -0.8000   -1.3856    0.0000 C   0  0  0  0  0  0  0  0  0  0  0  0
    0.0000   -2.7713    0.0000 Cl  0  0  0  0  0  0  0  0  0  0  0  0
    2.4000   -1.3856    0.0000 H   0  0  0  0  0  0  0  0  0  0  0  0
  1  2  1  0  0  0  0
  2  3  4  0  0  0  0
  3  4  1  0  0  0  0
  3  5  4  0  0  0  0
  5  6  1  0  0  0  0
  5  7  4  0  0  0  0
  7  8  1  0  0  0  0
  7  9  4  0  0  0  0
  9 10  1  0  0  0  0
  9 11  4  0  0  0  0
 11  2  4  0  0  0  0
 11 12  1  0  0  0  0
  1 13  1  0  0  0  0
M  END
> <CAS>
933-75-5

> <NAME>
2,3,6-TRICHLOROPHENOL

> <preferred_name>
2,3,6-Trichlorophenol

> <iupac>
C6H3Cl3O

> <SMILES>
Oc1c(Cl)c(Cl)ccc1Cl

> <Canonical_QSARr>
Oc1c(Cl)c(Cl)ccc1Cl

> <InChI_Code_QSARr>
InChI=1S/C6H3Cl3O/c7-3-1-2-4(8)6(10)5(3)9/h1-2,10H

> <InChI Key_QSARr>
XGCHAIDDPMFRLJ-UHFFFAOYSA-N

> <Salt_Solvent>
?

> <WS Temperature>
25

> <WS Reference>
SUNTIO,LR ET AL. (1988A)

> <dsstox_substance_id>
DTXSID5026209

> <LogMolar>
-2.6422

$$$$
936-40-3
  -INDIGO-01081615412D

 17 18  0  0  0  0  0  0  0  0999 V2000
    2.7713   -0.0000    0.0000 C   0  0  0  0  0  0  0  0  0  0  0  0
    1.3856    0.8000    0.0000 N   0  0  0  1  0  0  0  0  0  0  0  0
   -0.0000   -0.0000    0.0000 C   0  0  0  0  0  0  0  0  0  0  0  0
   -1.3857    0.8000    0.0000 C   0  0  0  0  0  0  0  0  0  0  0  0
   -2.7713    1.6000    0.0000 H   0  0  0  0  0  0  0  0  0  0  0  0
   -1.3857    2.4000    0.0000 H   0  0  0  0  0  0  0  0  0  0  0  0
   -2.7713   -0.0000    0.0000 H   0  0  0  0  0  0  0  0  0  0  0  0
   -0.0000   -1.6000    0.0000 C   0  0  0  0  0  0  0  0  0  0  0  0
   -1.3857   -2.4000    0.0000 H   0  0  0  0  0  0  0  0  0  0  0  0
    1.3856   -2.4000    0.0000 N   0  0  0  1  0  0  0  0  0  0  0  0
    2.7713   -1.6000    0.0000 C   0  0  0  0  0  0  0  0  0  0  0  0
    4.1570   -2.4000    0.0000 C   0  0  0  0  0  0  0  0  0  0  0  0
    4.1570   -4.0000    0.0000 H   0  0  0  0  0  0  0  0  0  0  0  0
    5.5426   -1.6000    0.0000 N   0  0  0  1  0  0  0  0  0  0  0  0
    5.5426   -0.0000    0.0000 C   0  0  0  0  0  0  0  0  0  0  0  0
    6.9282    0.8000    0.0000 H   0  0  0  0  0  0  0  0  0  0  0  0
    4.1570    0.8000    0.0000 N   0  0  0  1  0  0  0  0  0  0  0  0
  1  2  4  0  0  0  0
  2  3  4  0  0  0  0
  3  4  1  0  0  0  0
  4  5  1  0  0  0  0
  4  6  1  0  0  0  0
  4  7  1  0  0  0  0
  3  8  4  0  0  0  0
  8  9  1  0  0  0  0
  8 10  4  0  0  0  0
 10 11  4  0  0  0  0
 11  1  4  0  0  0  0
 11 12  4  0  0  0  0
 12 13  1  0  0  0  0
 12 14  4  0  0  0  0
 14 15  4  0  0  0  0
 15 16  1  0  0  0  0
 15 17  4  0  0  0  0
 17  1  4  0  0  0  0
M  END
> <CAS>
936-40-3

> <NAME>
Pteridine, 7-methyl-

> <preferred_name>


> <iupac>


> <SMILES>
Cc1c[n]c2c[n]c[n]c2[n]1

> <Canonical_QSARr>
Cc1c[n]c2c[n]c[n]c2[n]1

> <InChI_Code_QSARr>
InChI=1S/C7H6N4/c1-5-2-9-6-3-8-4-10-7(6)11-5/h2-4H,1H3

> <InChI Key_QSARr>
KOCYTWBTXZOUFS-UHFFFAOYSA-N

> <Salt_Solvent>
?

> <WS Temperature>
20

> <WS Reference>
BEILSTEIN

> <dsstox_substance_id>


> <LogMolar>
0.0571

$$$$
939-27-5
  -INDIGO-01081615412D

 24 25  0  0  0  0  0  0  0  0999 V2000
   -2.4000    1.3856    0.0000 C   0  0  0  0  0  0  0  0  0  0  0  0
   -3.2000    2.7713    0.0000 C   0  0  0  0  0  0  0  0  0  0  0  0
   -2.4000    4.1569    0.0000 H   0  0  0  0  0  0  0  0  0  0  0  0
   -4.8000    2.7713    0.0000 C   0  0  0  0  0  0  0  0  0  0  0  0
   -5.6000    4.1569    0.0000 H   0  0  0  0  0  0  0  0  0  0  0  0
   -5.6000    1.3856    0.0000 C   0  0  0  0  0  0  0  0  0  0  0  0
   -7.2000    1.3856    0.0000 H   0  0  0  0  0  0  0  0  0  0  0  0
   -4.8000   -0.0000    0.0000 C   0  0  0  0  0  0  0  0  0  0  0  0
   -5.6000   -1.3856    0.0000 H   0  0  0  0  0  0  0  0  0  0  0  0
   -3.2000   -0.0000    0.0000 C   0  0  0  0  0  0  0  0  0  0  0  0
   -2.4000   -1.3856    0.0000 C   0  0  0  0  0  0  0  0  0  0  0  0
   -3.2000   -2.7713    0.0000 H   0  0  0  0  0  0  0  0  0  0  0  0
   -0.8000   -1.3856    0.0000 C   0  0  0  0  0  0  0  0  0  0  0  0
    0.0000   -2.7713    0.0000 H   0  0  0  0  0  0  0  0  0  0  0  0
    0.0000   -0.0000    0.0000 C   0  0  0  0  0  0  0  0  0  0  0  0
    1.6000   -0.0000    0.0000 C   0  0  0  0  0  0  0  0  0  0  0  0
    3.2000   -0.0000    0.0000 C   0  0  0  0  0  0  0  0  0  0  0  0
    4.8000   -0.0000    0.0000 H   0  0  0  0  0  0  0  0  0  0  0  0
    4.0000   -1.3856    0.0000 H   0  0  0  0  0  0  0  0  0  0  0  0
    4.0000    1.3856    0.0000 H   0  0  0  0  0  0  0  0  0  0  0  0
    1.6000   -1.6000    0.0000 H   0  0  0  0  0  0  0  0  0  0  0  0
    1.6000    1.6000    0.0000 H   0  0  0  0  0  0  0  0  0  0  0  0
   -0.8000    1.3856    0.0000 C   0  0  0  0  0  0  0  0  0  0  0  0
    0.0000    2.7713    0.0000 H   0  0  0  0  0  0  0  0  0  0  0  0
  1  2  4  0  0  0  0
  2  3  1  0  0  0  0
  2  4  4  0  0  0  0
  4  5  1  0  0  0  0
  4  6  4  0  0  0  0
  6  7  1  0  0  0  0
  6  8  4  0  0  0  0
  8  9  1  0  0  0  0
  8 10  4  0  0  0  0
 10  1  4  0  0  0  0
 10 11  4  0  0  0  0
 11 12  1  0  0  0  0
 11 13  4  0  0  0  0
 13 14  1  0  0  0  0
 13 15  4  0  0  0  0
 15 16  1  0  0  0  0
 16 17  1  0  0  0  0
 17 18  1  0  0  0  0
 17 19  1  0  0  0  0
 17 20  1  0  0  0  0
 16 21  1  0  0  0  0
 16 22  1  0  0  0  0
 15 23  4  0  0  0  0
 23  1  4  0  0  0  0
 23 24  1  0  0  0  0
M  END
> <CAS>
939-27-5

> <NAME>
2-ETHYLNAPHTHALENE

> <preferred_name>
2-Ethylnaphthalene

> <iupac>
2-Ethylnaphthalene

> <SMILES>
CCc1cc2ccccc2cc1

> <Canonical_QSARr>
CCc1cc2ccccc2cc1

> <InChI_Code_QSARr>
InChI=1S/C12H12/c1-2-10-7-8-11-5-3-4-6-12(11)9-10/h3-9H,2H2,1H3

> <InChI Key_QSARr>
RJTJVVYSTUQWNI-UHFFFAOYSA-N

> <Salt_Solvent>
?

> <WS Temperature>
25

> <WS Reference>
YALKOWSKY,SH & DANNENFELSER,RM (1992)

> <dsstox_substance_id>
DTXSID9061330

> <LogMolar>
-4.2901

$$$$
947-02-4
  -INDIGO-01081615412D

 28 28  0  0  0  0  0  0  0  0999 V2000
    1.2945    0.9404    0.0000 N   0  0  0  0  0  0  0  0  0  0  0  0
    2.7560    0.2897    0.0000 C   0  0  0  0  0  0  0  0  0  0  0  0
    3.0887   -1.2754    0.0000 S   0  0  0  0  0  0  0  0  0  0  0  0
    4.6800   -1.4425    0.0000 C   0  0  0  0  0  0  0  0  0  0  0  0
    4.3473   -3.0076    0.0000 H   0  0  0  0  0  0  0  0  0  0  0  0
    6.2017   -1.9370    0.0000 H   0  0  0  0  0  0  0  0  0  0  0  0
    5.3307    0.0190    0.0000 C   0  0  0  0  0  0  0  0  0  0  0  0
    6.7164   -0.7810    0.0000 H   0  0  0  0  0  0  0  0  0  0  0  0
    6.2712    1.3134    0.0000 H   0  0  0  0  0  0  0  0  0  0  0  0
    4.1417    1.0897    0.0000 S   0  0  0  0  0  0  0  0  0  0  0  0
   -0.0001    0.0001    0.0000 P   0  0  0  0  0  0  0  0  0  0  0  0
   -1.2944   -0.9404    0.0000 O   0  0  0  0  0  0  0  0  0  0  0  0
   -2.7562   -0.2897    0.0000 C   0  0  0  0  0  0  0  0  0  0  0  0
   -4.2177    0.3611    0.0000 C   0  0  0  0  0  0  0  0  0  0  0  0
   -5.6794    1.0119    0.0000 H   0  0  0  0  0  0  0  0  0  0  0  0
   -5.5122   -0.5793    0.0000 H   0  0  0  0  0  0  0  0  0  0  0  0
   -4.3851    1.9524    0.0000 H   0  0  0  0  0  0  0  0  0  0  0  0
   -3.4068   -1.7514    0.0000 H   0  0  0  0  0  0  0  0  0  0  0  0
   -2.1053    1.1720    0.0000 H   0  0  0  0  0  0  0  0  0  0  0  0
   -0.9405    1.2945    0.0000 O   0  0  0  0  0  0  0  0  0  0  0  0
   -0.2897    2.7560    0.0000 C   0  0  0  0  0  0  0  0  0  0  0  0
    0.3610    4.2177    0.0000 C   0  0  0  0  0  0  0  0  0  0  0  0
    1.0119    5.6794    0.0000 H   0  0  0  0  0  0  0  0  0  0  0  0
   -0.5794    5.5122    0.0000 H   0  0  0  0  0  0  0  0  0  0  0  0
    1.9523    4.3850    0.0000 H   0  0  0  0  0  0  0  0  0  0  0  0
   -1.7514    3.4069    0.0000 H   0  0  0  0  0  0  0  0  0  0  0  0
    1.1721    2.1053    0.0000 H   0  0  0  0  0  0  0  0  0  0  0  0
    0.9404   -1.2945    0.0000 O   0  0  0  0  0  0  0  0  0  0  0  0
  1  2  2  0  0  0  0
  2  3  1  0  0  0  0
  3  4  1  0  0  0  0
  4  5  1  0  0  0  0
  4  6  1  0  0  0  0
  4  7  1  0  0  0  0
  7  8  1  0  0  0  0
  7  9  1  0  0  0  0
  7 10  1  0  0  0  0
 10  2  1  0  0  0  0
  1 11  1  0  0  0  0
 11 12  1  0  0  0  0
 12 13  1  0  0  0  0
 13 14  1  0  0  0  0
 14 15  1  0  0  0  0
 14 16  1  0  0  0  0
 14 17  1  0  0  0  0
 13 18  1  0  0  0  0
 13 19  1  0  0  0  0
 11 20  1  0  0  0  0
 20 21  1  0  0  0  0
 21 22  1  0  0  0  0
 22 23  1  0  0  0  0
 22 24  1  0  0  0  0
 22 25  1  0  0  0  0
 21 26  1  0  0  0  0
 21 27  1  0  0  0  0
 11 28  2  0  0  0  0
M  END
> <CAS>
947-02-4

> <NAME>
CYOLANE

> <preferred_name>
Phosfolan

> <iupac>
diethyl 1,3-dithiolan-2-ylidenephosphoramidate

> <SMILES>
CCOP(=O)(N=C1SCCS1)OCC

> <Canonical_QSARr>
CCOP(=O)(N=C1SCCS1)OCC

> <InChI_Code_QSARr>
InChI=1S/C7H14NO3PS2/c1-3-10-12(9,11-4-2)8-7-13-5-6-14-7/h3-6H2,1-2H3

> <InChI Key_QSARr>
ILBONRFSLATCRE-UHFFFAOYSA-N

> <Salt_Solvent>
?

> <WS Temperature>
25

> <WS Reference>
WORTHING,CR & WALKER,SB (1987)

> <dsstox_substance_id>
DTXSID1042285

> <LogMolar>
-2.5941

$$$$
952-54-5
  -INDIGO-01081615412D

 30 31  0  0  0  0  0  0  0  0999 V2000
    4.0000    1.3857    0.0000 C   0  0  0  0  0  0  0  0  0  0  0  0
    3.1999    2.7713    0.0000 O   0  0  0  0  0  0  0  0  0  0  0  0
    3.1999    0.0000    0.0000 N   0  0  0  0  0  0  0  0  0  0  0  0
    1.6001    0.0000    0.0000 C   0  0  0  0  0  0  0  0  0  0  0  0
    0.0000    0.0000    0.0000 N   0  0  0  0  0  0  0  0  0  0  0  0
   -0.8001    1.3857    0.0000 C   0  0  0  0  0  0  0  0  0  0  0  0
    0.5856    2.1856    0.0000 H   0  0  0  0  0  0  0  0  0  0  0  0
   -1.0779    2.9614    0.0000 H   0  0  0  0  0  0  0  0  0  0  0  0
   -2.3999    1.3857    0.0000 C   0  0  0  0  0  0  0  0  0  0  0  0
   -2.1221    2.9614    0.0000 H   0  0  0  0  0  0  0  0  0  0  0  0
   -3.9035    1.9329    0.0000 H   0  0  0  0  0  0  0  0  0  0  0  0
   -3.2001    0.0000    0.0000 O   0  0  0  0  0  0  0  0  0  0  0  0
   -2.3999   -1.3856    0.0000 C   0  0  0  0  0  0  0  0  0  0  0  0
   -3.9035   -1.9328    0.0000 H   0  0  0  0  0  0  0  0  0  0  0  0
   -2.1221   -2.9613    0.0000 H   0  0  0  0  0  0  0  0  0  0  0  0
   -0.8001   -1.3856    0.0000 C   0  0  0  0  0  0  0  0  0  0  0  0
   -1.0777   -2.9613    0.0000 H   0  0  0  0  0  0  0  0  0  0  0  0
    0.5856   -2.1856    0.0000 H   0  0  0  0  0  0  0  0  0  0  0  0
    1.6001    1.6000    0.0000 H   0  0  0  0  0  0  0  0  0  0  0  0
    1.8779   -1.5757    0.0000 H   0  0  0  0  0  0  0  0  0  0  0  0
    4.0000   -1.3856    0.0000 H   0  0  0  0  0  0  0  0  0  0  0  0
    5.6001    1.3857    0.0000 C   0  0  0  0  0  0  0  0  0  0  0  0
    6.4000    2.7713    0.0000 C   0  0  0  0  0  0  0  0  0  0  0  0
    5.6001    4.1569    0.0000 H   0  0  0  0  0  0  0  0  0  0  0  0
    8.0000    2.7713    0.0000 N   0  0  0  1  0  0  0  0  0  0  0  0
    8.8000    1.3857    0.0000 C   0  0  0  0  0  0  0  0  0  0  0  0
   10.4000    1.3857    0.0000 H   0  0  0  0  0  0  0  0  0  0  0  0
    8.0000    0.0000    0.0000 C   0  0  0  0  0  0  0  0  0  0  0  0
    8.8000   -1.3856    0.0000 H   0  0  0  0  0  0  0  0  0  0  0  0
    6.4000    0.0000    0.0000 N   0  0  0  1  0  0  0  0  0  0  0  0
  1  2  2  0  0  0  0
  1  3  1  0  0  0  0
  3  4  1  0  0  0  0
  4  5  1  0  0  0  0
  5  6  1  0  0  0  0
  6  7  1  0  0  0  0
  6  8  1  0  0  0  0
  6  9  1  0  0  0  0
  9 10  1  0  0  0  0
  9 11  1  0  0  0  0
  9 12  1  0  0  0  0
 12 13  1  0  0  0  0
 13 14  1  0  0  0  0
 13 15  1  0  0  0  0
 13 16  1  0  0  0  0
 16  5  1  0  0  0  0
 16 17  1  0  0  0  0
 16 18  1  0  0  0  0
  4 19  1  0  0  0  0
  4 20  1  0  0  0  0
  3 21  1  0  0  0  0
  1 22  1  0  0  0  0
 22 23  4  0  0  0  0
 23 24  1  0  0  0  0
 23 25  4  0  0  0  0
 25 26  4  0  0  0  0
 26 27  1  0  0  0  0
 26 28  4  0  0  0  0
 28 29  1  0  0  0  0
 28 30  4  0  0  0  0
 30 22  4  0  0  0  0
M  END
> <CAS>
952-54-5

> <NAME>
PORPHAZINAMIDE

> <preferred_name>
Morphazinamide

> <iupac>
N-(morpholin-4-ylmethyl)pyrazine-2-carboxamide

> <SMILES>
O=C(NCN1CCOCC1)c1c[n]cc[n]1

> <Canonical_QSARr>
O=C(NCN1CCOCC1)c1c[n]cc[n]1

> <InChI_Code_QSARr>
InChI=1S/C10H14N4O2/c15-10(9-7-11-1-2-12-9)13-8-14-3-5-16-6-4-14/h1-2,7H,3-6,8H2,(H,13,15)

> <InChI Key_QSARr>
GVTLAVKAVSKBKK-UHFFFAOYSA-N

> <Salt_Solvent>
?

> <WS Temperature>


> <WS Reference>
MERCK INDEX (1989)

> <dsstox_substance_id>
DTXSID4046159

> <LogMolar>
0.176

$$$$
977-79-7
  -INDIGO-01081615412D

 57 60  0  0  0  0  0  0  0  0999 V2000
    5.6000    1.3857    0.0000 C   0  0  0  0  0  0  0  0  0  0  0  0
    7.2000    1.3857    0.0000 C   0  0  0  0  0  0  0  0  0  0  0  0
    8.0001    2.7713    0.0000 H   0  0  0  0  0  0  0  0  0  0  0  0
    8.0001   -0.0001    0.0000 C   0  0  0  0  0  0  0  0  0  0  0  0
    9.6000   -0.0001    0.0000 O   0  0  0  0  0  0  0  0  0  0  0  0
    7.2000   -1.3856    0.0000 C   0  0  0  0  0  0  0  0  0  0  0  0
    6.9222   -2.9613    0.0000 H   0  0  0  0  0  0  0  0  0  0  0  0
    8.7036   -1.9328    0.0000 H   0  0  0  0  0  0  0  0  0  0  0  0
    5.6000   -1.3856    0.0000 C   0  0  0  0  0  0  0  0  0  0  0  0
    4.8000   -2.7712    0.0000 H   0  0  0  0  0  0  0  0  0  0  0  0
    5.8778   -2.9613    0.0000 H   0  0  0  0  0  0  0  0  0  0  0  0
    4.8000   -0.0001    0.0000 C   0  0  0  0  0  0  0  0  0  0  0  0
    4.3886   -0.4903    0.0000 C   0  0  0  0  0  0  0  0  0  0  0  0
    4.9359   -1.9938    0.0000 H   0  0  0  0  0  0  0  0  0  0  0  0
    4.0001   -1.3856    0.0000 H   0  0  0  0  0  0  0  0  0  0  0  0
    3.8413    1.0132    0.0000 H   0  0  0  0  0  0  0  0  0  0  0  0
    3.2000   -0.0001    0.0000 C   0  0  0  0  0  0  0  0  0  0  0  0
    2.3999   -1.3856    0.0000 C   0  0  0  0  0  0  0  0  0  0  0  0
    0.8000   -1.3856    0.0000 C   0  0  0  0  0  0  0  0  0  0  0  0
   -0.0001   -0.0001    0.0000 C   0  0  0  0  0  0  0  0  0  0  0  0
   -0.9404   -1.2944    0.0000 C   0  0  0  0  0  0  0  0  0  0  0  0
   -1.8809   -2.5889    0.0000 H   0  0  0  0  0  0  0  0  0  0  0  0
   -0.8289   -2.8905    0.0000 H   0  0  0  0  0  0  0  0  0  0  0  0
   -0.2324   -0.9007    0.0000 H   0  0  0  0  0  0  0  0  0  0  0  0
   -1.5649    0.3327    0.0000 C   0  0  0  0  0  0  0  0  0  0  0  0
   -1.7322   -1.2586    0.0000 C   0  0  0  0  0  0  0  0  0  0  0  0
   -3.1938   -1.9094    0.0000 H   0  0  0  0  0  0  0  0  0  0  0  0
   -3.0268   -0.3181    0.0000 H   0  0  0  0  0  0  0  0  0  0  0  0
   -2.5316   -1.1272    0.0000 H   0  0  0  0  0  0  0  0  0  0  0  0
   -3.0685    0.8799    0.0000 C   0  0  0  0  0  0  0  0  0  0  0  0
   -4.4543    0.0799    0.0000 C   0  0  0  0  0  0  0  0  0  0  0  0
   -5.8398    0.8799    0.0000 H   0  0  0  0  0  0  0  0  0  0  0  0
   -5.8398   -0.7201    0.0000 H   0  0  0  0  0  0  0  0  0  0  0  0
   -4.4543    1.6798    0.0000 H   0  0  0  0  0  0  0  0  0  0  0  0
   -3.2973    1.5912    0.0000 O   0  0  0  0  0  0  0  0  0  0  0  0
   -1.7322    1.9239    0.0000 C   0  0  0  0  0  0  0  0  0  0  0  0
   -2.2267    3.4456    0.0000 H   0  0  0  0  0  0  0  0  0  0  0  0
   -2.4223    2.2109    0.0000 H   0  0  0  0  0  0  0  0  0  0  0  0
   -0.2706    2.5747    0.0000 C   0  0  0  0  0  0  0  0  0  0  0  0
    0.6240    3.9011    0.0000 H   0  0  0  0  0  0  0  0  0  0  0  0
   -1.0706    3.9603    0.0000 H   0  0  0  0  0  0  0  0  0  0  0  0
    0.8000    1.3857    0.0000 C   0  0  0  0  0  0  0  0  0  0  0  0
    0.9117    2.9817    0.0000 H   0  0  0  0  0  0  0  0  0  0  0  0
    2.3999    1.3857    0.0000 C   0  0  0  0  0  0  0  0  0  0  0  0
    2.1222    2.9614    0.0000 H   0  0  0  0  0  0  0  0  0  0  0  0
    3.2000    2.7713    0.0000 C   0  0  0  0  0  0  0  0  0  0  0  0
    2.3999    4.1570    0.0000 H   0  0  0  0  0  0  0  0  0  0  0  0
    4.8000    2.7713    0.0000 C   0  0  0  0  0  0  0  0  0  0  0  0
    5.6000    4.1570    0.0000 C   0  0  0  0  0  0  0  0  0  0  0  0
    6.3999    5.5426    0.0000 H   0  0  0  0  0  0  0  0  0  0  0  0
    4.8000    5.5426    0.0000 H   0  0  0  0  0  0  0  0  0  0  0  0
    7.2000    4.1570    0.0000 H   0  0  0  0  0  0  0  0  0  0  0  0
   -0.5856   -2.1856    0.0000 H   0  0  0  0  0  0  0  0  0  0  0  0
    1.0778   -2.9613    0.0000 H   0  0  0  0  0  0  0  0  0  0  0  0
    2.1222   -2.9613    0.0000 H   0  0  0  0  0  0  0  0  0  0  0  0
    3.2000   -2.7712    0.0000 H   0  0  0  0  0  0  0  0  0  0  0  0
    3.1762   -0.9757    0.0000 H   0  0  0  0  0  0  0  0  0  0  0  0
  1  2  2  0  0  0  0
  2  3  1  0  0  0  0
  2  4  1  0  0  0  0
  4  5  2  0  0  0  0
  4  6  1  0  0  0  0
  6  7  1  0  0  0  0
  6  8  1  0  0  0  0
  6  9  1  0  0  0  0
  9 10  1  0  0  0  0
  9 11  1  0  0  0  0
  9 12  1  0  0  0  0
 12  1  1  0  0  0  0
 12 13  1  0  0  0  0
 13 14  1  0  0  0  0
 13 15  1  0  0  0  0
 13 16  1  0  0  0  0
 12 17  1  0  0  0  0
 17 18  1  0  0  0  0
 18 19  1  0  0  0  0
 19 20  1  0  0  0  0
 20 21  1  0  0  0  0
 21 22  1  0  0  0  0
 21 23  1  0  0  0  0
 21 24  1  0  0  0  0
 20 25  1  0  0  0  0
 25 26  1  0  0  0  0
 26 27  1  0  0  0  0
 26 28  1  0  0  0  0
 26 29  1  0  0  0  0
 25 30  1  0  0  0  0
 30 31  1  0  0  0  0
 31 32  1  0  0  0  0
 31 33  1  0  0  0  0
 31 34  1  0  0  0  0
 30 35  2  0  0  0  0
 25 36  1  0  0  0  0
 36 37  1  0  0  0  0
 36 38  1  0  0  0  0
 36 39  1  0  0  0  0
 39 40  1  0  0  0  0
 39 41  1  0  0  0  0
 39 42  1  0  0  0  0
 42 20  1  0  0  0  0
 42 43  1  0  0  0  0
 42 44  1  0  0  0  0
 44 17  1  0  0  0  0
 44 45  1  0  0  0  0
 44 46  1  0  0  0  0
 46 47  1  0  0  0  0
 46 48  2  0  0  0  0
 48  1  1  0  0  0  0
 48 49  1  0  0  0  0
 49 50  1  0  0  0  0
 49 51  1  0  0  0  0
 49 52  1  0  0  0  0
 19 53  1  0  0  0  0
 19 54  1  0  0  0  0
 18 55  1  0  0  0  0
 18 56  1  0  0  0  0
 17 57  1  0  0  0  0
M  END
> <CAS>
977-79-7

> <NAME>
Medrogestone

> <preferred_name>


> <iupac>


> <SMILES>
CC(=O)[C@@]1(C)CC[C@H]2[C@@H]3C=C(C)C4=CC(=O)CC[C@]4(C)[C@H]3CC[C@]12C

> <Canonical_QSARr>
CC(=O)C1(C)CCC2C3C=C(C)C4=CC(=O)CCC4(C)C3CCC12C

> <InChI_Code_QSARr>
InChI=1S/C23H32O2/c1-14-12-17-18(21(3)9-6-16(25)13-20(14)21)7-11-23(5)19(17)8-10-22(23,4)15(2)24/h12-13,17-19H,6-11H2,1-5H3

> <InChI Key_QSARr>
HCFSGRMEEXUOSS-UHFFFAOYSA-N

> <Salt_Solvent>
?

> <WS Temperature>
25

> <WS Reference>
YALKOWSKY,SH & DANNENFELSER,RM (1992)

> <dsstox_substance_id>


> <LogMolar>
-5.2721

$$$$
999-17-7
  -INDIGO-01081615412D

 17 16  0  0  0  0  0  0  0  0999 V2000
   -1.3857    0.8000    0.0000 O   0  0  0  0  0  0  0  0  0  0  0  0
   -2.7712   -0.0000    0.0000 C   0  0  0  0  0  0  0  0  0  0  0  0
   -4.1569    0.8000    0.0000 C   0  0  0  0  0  0  0  0  0  0  0  0
   -5.5425    1.6000    0.0000 O   0  0  0  0  0  0  0  0  0  0  0  0
   -6.9282    0.8000    0.0000 N   0  0  0  0  0  0  0  0  0  0  0  0
   -8.3138    1.6000    0.0000 O   0  0  0  0  0  0  0  0  0  0  0  0
   -6.9282   -0.8000    0.0000 O   0  0  0  0  0  0  0  0  0  0  0  0
   -4.9569   -0.5856    0.0000 H   0  0  0  0  0  0  0  0  0  0  0  0
   -3.3570    2.1856    0.0000 H   0  0  0  0  0  0  0  0  0  0  0  0
   -2.7712   -1.6000    0.0000 O   0  0  0  0  0  0  0  0  0  0  0  0
   -0.0000   -0.0000    0.0000 C   0  0  0  0  0  0  0  0  0  0  0  0
    1.3856   -0.8000    0.0000 C   0  0  0  0  0  0  0  0  0  0  0  0
    2.7713   -1.6000    0.0000 H   0  0  0  0  0  0  0  0  0  0  0  0
    1.3856   -2.4000    0.0000 H   0  0  0  0  0  0  0  0  0  0  0  0
    2.7713   -0.0000    0.0000 H   0  0  0  0  0  0  0  0  0  0  0  0
    0.8000    1.3856    0.0000 H   0  0  0  0  0  0  0  0  0  0  0  0
   -0.7999   -1.3856    0.0000 H   0  0  0  0  0  0  0  0  0  0  0  0
  1  2  1  0  0  0  0
  2  3  1  0  0  0  0
  3  4  1  0  0  0  0
  4  5  1  0  0  0  0
  5  6  2  0  0  0  0
  5  7  1  0  0  0  0
  3  8  1  0  0  0  0
  3  9  1  0  0  0  0
  2 10  2  0  0  0  0
  1 11  1  0  0  0  0
 11 12  1  0  0  0  0
 12 13  1  0  0  0  0
 12 14  1  0  0  0  0
 12 15  1  0  0  0  0
 11 16  1  0  0  0  0
 11 17  1  0  0  0  0
M  CHG  2   5   1   7  -1
M  END
> <CAS>
999-17-7

> <NAME>
Acetic acid, (nitrooxy)-, ethyl ester

> <preferred_name>
Acetic acid, (nitrooxy)-, ethyl ester

> <iupac>
C4H7NO5

> <SMILES>
CCOC(=O)CO[N+]([O-])=O

> <Canonical_QSARr>
CCOC(=O)CO[N+]([O-])=O

> <InChI_Code_QSARr>
InChI=1S/C4H7NO5/c1-2-9-4(6)3-10-5(7)8/h2-3H2,1H3

> <InChI Key_QSARr>
PMCOPORTQICYLN-UHFFFAOYSA-N

> <Salt_Solvent>
?

> <WS Temperature>
30

> <WS Reference>
BEILSTEIN

> <dsstox_substance_id>
DTXSID80401955

> <LogMolar>
-1.7111

$$$$
1002-16-0
  -INDIGO-01081615412D

 20 19  0  0  0  0  0  0  0  0999 V2000
    5.6000   -1.3856    0.0000 N   0  0  0  0  0  0  0  0  0  0  0  0
    4.8000    0.0000    0.0000 O   0  0  0  0  0  0  0  0  0  0  0  0
    3.2000    0.0000    0.0000 C   0  0  0  0  0  0  0  0  0  0  0  0
    1.6000    0.0000    0.0000 C   0  0  0  0  0  0  0  0  0  0  0  0
    0.0000    0.0000    0.0000 C   0  0  0  0  0  0  0  0  0  0  0  0
   -1.6000    0.0000    0.0000 C   0  0  0  0  0  0  0  0  0  0  0  0
   -3.2000    0.0000    0.0000 C   0  0  0  0  0  0  0  0  0  0  0  0
   -4.8000    0.0000    0.0000 H   0  0  0  0  0  0  0  0  0  0  0  0
   -4.0000   -1.3856    0.0000 H   0  0  0  0  0  0  0  0  0  0  0  0
   -4.0000    1.3856    0.0000 H   0  0  0  0  0  0  0  0  0  0  0  0
   -1.6000   -1.6000    0.0000 H   0  0  0  0  0  0  0  0  0  0  0  0
   -1.6000    1.6000    0.0000 H   0  0  0  0  0  0  0  0  0  0  0  0
    0.0000    1.6000    0.0000 H   0  0  0  0  0  0  0  0  0  0  0  0
    0.0000   -1.6000    0.0000 H   0  0  0  0  0  0  0  0  0  0  0  0
    1.6000   -1.6000    0.0000 H   0  0  0  0  0  0  0  0  0  0  0  0
    1.6000    1.6000    0.0000 H   0  0  0  0  0  0  0  0  0  0  0  0
    3.2000   -1.6000    0.0000 H   0  0  0  0  0  0  0  0  0  0  0  0
    3.2000    1.6000    0.0000 H   0  0  0  0  0  0  0  0  0  0  0  0
    7.2000   -1.3856    0.0000 O   0  0  0  0  0  0  0  0  0  0  0  0
    4.8000   -2.7713    0.0000 O   0  0  0  0  0  0  0  0  0  0  0  0
  1  2  1  0  0  0  0
  2  3  1  0  0  0  0
  3  4  1  0  0  0  0
  4  5  1  0  0  0  0
  5  6  1  0  0  0  0
  6  7  1  0  0  0  0
  7  8  1  0  0  0  0
  7  9  1  0  0  0  0
  7 10  1  0  0  0  0
  6 11  1  0  0  0  0
  6 12  1  0  0  0  0
  5 13  1  0  0  0  0
  5 14  1  0  0  0  0
  4 15  1  0  0  0  0
  4 16  1  0  0  0  0
  3 17  1  0  0  0  0
  3 18  1  0  0  0  0
  1 19  2  0  0  0  0
  1 20  1  0  0  0  0
M  CHG  2   1   1  20  -1
M  END
> <CAS>
1002-16-0

> <NAME>
1-PENTYL NITRATE

> <preferred_name>
Amyl nitrate

> <iupac>
Pentyl nitrate

> <SMILES>
CCCCCO[N+]([O-])=O

> <Canonical_QSARr>
CCCCCO[N+]([O-])=O

> <InChI_Code_QSARr>
InChI=1S/C5H11NO3/c1-2-3-4-5-9-6(7)8/h2-5H2,1H3

> <InChI Key_QSARr>
HSNWZBCBUUSSQD-UHFFFAOYSA-N

> <Salt_Solvent>
?

> <WS Temperature>
25

> <WS Reference>
HAUFF,K ET AL. (1998)

> <dsstox_substance_id>
DTXSID2058708

> <LogMolar>
-2.568

$$$$
1007-28-9
  -INDIGO-01081615412D

 19 19  0  0  0  0  0  0  0  0999 V2000
   -1.3856   -0.8000    0.0000 C   0  0  0  0  0  0  0  0  0  0  0  0
    0.0000   -0.0000    0.0000 C   0  0  0  0  0  0  0  0  0  0  0  0
    1.3857    0.8000    0.0000 N   0  0  0  0  0  0  0  0  0  0  0  0
    2.7712   -0.0000    0.0000 C   0  0  0  0  0  0  0  0  0  0  0  0
    2.7712   -1.6000    0.0000 N   0  0  0  1  0  0  0  0  0  0  0  0
    4.1569   -2.4000    0.0000 C   0  0  0  0  0  0  0  0  0  0  0  0
    4.1569   -4.0000    0.0000 Cl  0  0  0  0  0  0  0  0  0  0  0  0
    5.5425   -1.6000    0.0000 N   0  0  0  1  0  0  0  0  0  0  0  0
    5.5425   -0.0000    0.0000 C   0  0  0  0  0  0  0  0  0  0  0  0
    6.9282    0.8000    0.0000 N   0  0  0  0  0  0  0  0  0  0  0  0
    8.3138   -0.0000    0.0000 H   0  0  0  0  0  0  0  0  0  0  0  0
    6.9282    2.4000    0.0000 H   0  0  0  0  0  0  0  0  0  0  0  0
    4.1569    0.8000    0.0000 N   0  0  0  1  0  0  0  0  0  0  0  0
    1.3857    2.4000    0.0000 H   0  0  0  0  0  0  0  0  0  0  0  0
   -0.8000    1.3856    0.0000 H   0  0  0  0  0  0  0  0  0  0  0  0
    0.7999   -1.3856    0.0000 H   0  0  0  0  0  0  0  0  0  0  0  0
   -2.7713   -1.6000    0.0000 H   0  0  0  0  0  0  0  0  0  0  0  0
   -2.7713   -0.0000    0.0000 H   0  0  0  0  0  0  0  0  0  0  0  0
   -1.3856   -2.4000    0.0000 H   0  0  0  0  0  0  0  0  0  0  0  0
  1  2  1  0  0  0  0
  2  3  1  0  0  0  0
  3  4  1  0  0  0  0
  4  5  4  0  0  0  0
  5  6  4  0  0  0  0
  6  7  1  0  0  0  0
  6  8  4  0  0  0  0
  8  9  4  0  0  0  0
  9 10  1  0  0  0  0
 10 11  1  0  0  0  0
 10 12  1  0  0  0  0
  9 13  4  0  0  0  0
 13  4  4  0  0  0  0
  3 14  1  0  0  0  0
  2 15  1  0  0  0  0
  2 16  1  0  0  0  0
  1 17  1  0  0  0  0
  1 18  1  0  0  0  0
  1 19  1  0  0  0  0
M  END
> <CAS>
1007-28-9

> <NAME>
DESISOPROPYLATRAZINE

> <preferred_name>
Deisopropylatrazine

> <iupac>
6-chloro-N-ethyl-1,3,5-triazine-2,4-diamine

> <SMILES>
CCNc1[n]c(N)[n]c(Cl)[n]1

> <Canonical_QSARr>
CCNc1[n]c(N)[n]c(Cl)[n]1

> <InChI_Code_QSARr>
InChI=1S/C5H8ClN5/c1-2-8-5-10-3(6)9-4(7)11-5/h2H2,1H3,(H3,7,8,9,10,11)

> <InChI Key_QSARr>
IVENSCMCQBJAKW-UHFFFAOYSA-N

> <Salt_Solvent>
?

> <WS Temperature>
22

> <WS Reference>
MILLS,MS & THURMAN,EM (1994A)

> <dsstox_substance_id>
DTXSID0037495

> <LogMolar>
-2.4135

$$$$
1024-57-3
  -INDIGO-01081615412D

 23 26  0  0  0  0  0  0  0  0999 V2000
    3.0434    1.6000    0.0000 C   0  0  0  0  0  0  0  0  0  0  0  0
    4.3378    2.5405    0.0000 Cl  0  0  0  0  0  0  0  0  0  0  0  0
    3.0434    0.0000    0.0000 C   0  0  0  0  0  0  0  0  0  0  0  0
    4.3378   -0.9405    0.0000 Cl  0  0  0  0  0  0  0  0  0  0  0  0
    1.5217   -0.4945    0.0000 C   0  0  0  0  0  0  0  0  0  0  0  0
    1.5217   -2.0944    0.0000 Cl  0  0  0  0  0  0  0  0  0  0  0  0
    2.4621    0.8000    0.0000 C   0  0  0  0  0  0  0  0  0  0  0  0
    3.9456    0.2006    0.0000 Cl  0  0  0  0  0  0  0  0  0  0  0  0
    3.9456    1.3994    0.0000 Cl  0  0  0  0  0  0  0  0  0  0  0  0
    1.5217    2.0945    0.0000 C   0  0  0  0  0  0  0  0  0  0  0  0
    1.5217    3.6944    0.0000 Cl  0  0  0  0  0  0  0  0  0  0  0  0
    0.0000    1.6000    0.0000 C   0  0  0  0  0  0  0  0  0  0  0  0
   -1.5217    2.0945    0.0000 C   0  0  0  0  0  0  0  0  0  0  0  0
   -1.1346    3.6469    0.0000 Cl  0  0  0  0  0  0  0  0  0  0  0  0
   -2.9074    2.8944    0.0000 H   0  0  0  0  0  0  0  0  0  0  0  0
   -2.4621    0.8000    0.0000 C   0  0  0  0  0  0  0  0  0  0  0  0
   -3.1130   -0.6617    0.0000 O   0  0  0  0  0  0  0  0  0  0  0  0
   -1.5217   -0.4945    0.0000 C   0  0  0  0  0  0  0  0  0  0  0  0
   -1.1891   -2.0594    0.0000 H   0  0  0  0  0  0  0  0  0  0  0  0
    0.0000    0.0000    0.0000 C   0  0  0  0  0  0  0  0  0  0  0  0
    0.0000   -1.6000    0.0000 H   0  0  0  0  0  0  0  0  0  0  0  0
   -3.8478    1.6000    0.0000 H   0  0  0  0  0  0  0  0  0  0  0  0
    0.0000    3.2000    0.0000 H   0  0  0  0  0  0  0  0  0  0  0  0
  1  2  1  0  0  0  0
  1  3  2  0  0  0  0
  3  4  1  0  0  0  0
  3  5  1  0  0  0  0
  5  6  1  0  0  0  0
  5  7  1  0  0  0  0
  7  8  1  0  0  0  0
  7  9  1  0  0  0  0
  7 10  1  0  0  0  0
 10  1  1  0  0  0  0
 10 11  1  0  0  0  0
 10 12  1  0  0  0  0
 12 13  1  0  0  0  0
 13 14  1  0  0  0  0
 13 15  1  0  0  0  0
 13 16  1  0  0  0  0
 16 17  1  0  0  0  0
 17 18  1  0  0  0  0
 18 16  1  0  0  0  0
 18 19  1  0  0  0  0
 18 20  1  0  0  0  0
 20 12  1  0  0  0  0
 20  5  1  0  0  0  0
 20 21  1  0  0  0  0
 16 22  1  0  0  0  0
 12 23  1  0  0  0  0
M  END
> <CAS>
1024-57-3

> <NAME>
HEPTACHLOR EPOXIDE

> <preferred_name>
Heptachlor epoxide

> <iupac>
2,3,4,5,6,7,7-heptachloro-1b,2,5,5a,6,6a-hexahydro-1aH-2,5-methanoindeno[1,2-b]oxirene

> <SMILES>
ClC1(Cl)C2(Cl)C3C4OC4C(Cl)C3C1(Cl)C(Cl)=C2Cl

> <Canonical_QSARr>
ClC1(Cl)C2(Cl)C3C4OC4C(Cl)C3C1(Cl)C(Cl)=C2Cl

> <InChI_Code_QSARr>
InChI=1S/C10H5Cl7O/c11-3-1-2(4-5(3)18-4)9(15)7(13)6(12)8(1,14)10(9,16)17/h1-5H

> <InChI Key_QSARr>
ZXFXBSWRVIQKOD-UHFFFAOYSA-N

> <Salt_Solvent>
?

> <WS Temperature>
25

> <WS Reference>
BIGGAR,JW & RIGGS,RI (1974)

> <dsstox_substance_id>
DTXSID1024126

> <LogMolar>
-6.2893

$$$$
1034-01-1
  -INDIGO-01081615412D

 42 42  0  0  0  0  0  0  0  0999 V2000
   11.9999   -1.3856    0.0000 C   0  0  0  0  0  0  0  0  0  0  0  0
   13.5998   -1.3856    0.0000 O   0  0  0  0  0  0  0  0  0  0  0  0
   14.4000   -2.7713    0.0000 H   0  0  0  0  0  0  0  0  0  0  0  0
   11.2000    0.0000    0.0000 C   0  0  0  0  0  0  0  0  0  0  0  0
   11.9999    1.3856    0.0000 O   0  0  0  0  0  0  0  0  0  0  0  0
   11.2000    2.7713    0.0000 H   0  0  0  0  0  0  0  0  0  0  0  0
    9.6001    0.0000    0.0000 C   0  0  0  0  0  0  0  0  0  0  0  0
    8.7999    1.3856    0.0000 H   0  0  0  0  0  0  0  0  0  0  0  0
    8.7999   -1.3857    0.0000 C   0  0  0  0  0  0  0  0  0  0  0  0
    7.1999   -1.3857    0.0000 C   0  0  0  0  0  0  0  0  0  0  0  0
    6.4001    0.0000    0.0000 O   0  0  0  0  0  0  0  0  0  0  0  0
    4.8001    0.0000    0.0000 C   0  0  0  0  0  0  0  0  0  0  0  0
    3.2002    0.0000    0.0000 C   0  0  0  0  0  0  0  0  0  0  0  0
    1.5999    0.0000    0.0000 C   0  0  0  0  0  0  0  0  0  0  0  0
   -0.0001    0.0000    0.0000 C   0  0  0  0  0  0  0  0  0  0  0  0
   -1.6001    0.0000    0.0000 C   0  0  0  0  0  0  0  0  0  0  0  0
   -3.2001    0.0000    0.0000 C   0  0  0  0  0  0  0  0  0  0  0  0
   -4.8001    0.0000    0.0000 C   0  0  0  0  0  0  0  0  0  0  0  0
   -6.4000    0.0000    0.0000 C   0  0  0  0  0  0  0  0  0  0  0  0
   -8.0000    0.0000    0.0000 H   0  0  0  0  0  0  0  0  0  0  0  0
   -7.1998    1.3856    0.0000 H   0  0  0  0  0  0  0  0  0  0  0  0
   -7.1998   -1.3857    0.0000 H   0  0  0  0  0  0  0  0  0  0  0  0
   -4.8001    1.6000    0.0000 H   0  0  0  0  0  0  0  0  0  0  0  0
   -4.8001   -1.6000    0.0000 H   0  0  0  0  0  0  0  0  0  0  0  0
   -3.2001    1.6000    0.0000 H   0  0  0  0  0  0  0  0  0  0  0  0
   -3.2001   -1.6000    0.0000 H   0  0  0  0  0  0  0  0  0  0  0  0
   -1.6001    1.6000    0.0000 H   0  0  0  0  0  0  0  0  0  0  0  0
   -1.6001   -1.6000    0.0000 H   0  0  0  0  0  0  0  0  0  0  0  0
   -0.0001    1.6000    0.0000 H   0  0  0  0  0  0  0  0  0  0  0  0
   -0.0001   -1.6000    0.0000 H   0  0  0  0  0  0  0  0  0  0  0  0
    1.5999    1.6000    0.0000 H   0  0  0  0  0  0  0  0  0  0  0  0
    1.5999   -1.6000    0.0000 H   0  0  0  0  0  0  0  0  0  0  0  0
    3.2002    1.6000    0.0000 H   0  0  0  0  0  0  0  0  0  0  0  0
    3.2002   -1.6000    0.0000 H   0  0  0  0  0  0  0  0  0  0  0  0
    4.8001    1.6000    0.0000 H   0  0  0  0  0  0  0  0  0  0  0  0
    4.8001   -1.6000    0.0000 H   0  0  0  0  0  0  0  0  0  0  0  0
    6.4001   -2.7713    0.0000 O   0  0  0  0  0  0  0  0  0  0  0  0
    9.6001   -2.7713    0.0000 C   0  0  0  0  0  0  0  0  0  0  0  0
    8.7999   -4.1569    0.0000 H   0  0  0  0  0  0  0  0  0  0  0  0
   11.2000   -2.7713    0.0000 C   0  0  0  0  0  0  0  0  0  0  0  0
   11.9999   -4.1569    0.0000 O   0  0  0  0  0  0  0  0  0  0  0  0
   11.2000   -5.5426    0.0000 H   0  0  0  0  0  0  0  0  0  0  0  0
  1  2  1  0  0  0  0
  2  3  1  0  0  0  0
  1  4  4  0  0  0  0
  4  5  1  0  0  0  0
  5  6  1  0  0  0  0
  4  7  4  0  0  0  0
  7  8  1  0  0  0  0
  7  9  4  0  0  0  0
  9 10  1  0  0  0  0
 10 11  1  0  0  0  0
 11 12  1  0  0  0  0
 12 13  1  0  0  0  0
 13 14  1  0  0  0  0
 14 15  1  0  0  0  0
 15 16  1  0  0  0  0
 16 17  1  0  0  0  0
 17 18  1  0  0  0  0
 18 19  1  0  0  0  0
 19 20  1  0  0  0  0
 19 21  1  0  0  0  0
 19 22  1  0  0  0  0
 18 23  1  0  0  0  0
 18 24  1  0  0  0  0
 17 25  1  0  0  0  0
 17 26  1  0  0  0  0
 16 27  1  0  0  0  0
 16 28  1  0  0  0  0
 15 29  1  0  0  0  0
 15 30  1  0  0  0  0
 14 31  1  0  0  0  0
 14 32  1  0  0  0  0
 13 33  1  0  0  0  0
 13 34  1  0  0  0  0
 12 35  1  0  0  0  0
 12 36  1  0  0  0  0
 10 37  2  0  0  0  0
  9 38  4  0  0  0  0
 38 39  1  0  0  0  0
 38 40  4  0  0  0  0
 40  1  4  0  0  0  0
 40 41  1  0  0  0  0
 41 42  1  0  0  0  0
M  END
> <CAS>
1034-01-1

> <NAME>
OCTYL GALLATE

> <preferred_name>
Octyl gallate

> <iupac>
octyl 3,4,5-trihydroxybenzoate

> <SMILES>
CCCCCCCCOC(=O)c1cc(O)c(O)c(O)c1

> <Canonical_QSARr>
CCCCCCCCOC(=O)c1cc(O)c(O)c(O)c1

> <InChI_Code_QSARr>
InChI=1S/C15H22O5/c1-2-3-4-5-6-7-8-20-15(19)11-9-12(16)14(18)13(17)10-11/h9-10,16-18H,2-8H2,1H3

> <InChI Key_QSARr>
NRPKURNSADTHLJ-UHFFFAOYSA-N

> <Salt_Solvent>
?

> <WS Temperature>
20

> <WS Reference>
BEILSTEIN

> <dsstox_substance_id>
DTXSID4040713

> <LogMolar>
-3.8945

$$$$
1072-85-1
  -INDIGO-01081615412D

 12 12  0  0  0  0  0  0  0  0999 V2000
    0.0000   -0.0000    0.0000 C   0  0  0  0  0  0  0  0  0  0  0  0
   -0.8000    1.3856    0.0000 F   0  0  0  0  0  0  0  0  0  0  0  0
   -0.8000   -1.3857    0.0000 C   0  0  0  0  0  0  0  0  0  0  0  0
   -2.4000   -1.3857    0.0000 H   0  0  0  0  0  0  0  0  0  0  0  0
    0.0000   -2.7713    0.0000 C   0  0  0  0  0  0  0  0  0  0  0  0
   -0.8000   -4.1569    0.0000 H   0  0  0  0  0  0  0  0  0  0  0  0
    1.6000   -2.7713    0.0000 C   0  0  0  0  0  0  0  0  0  0  0  0
    2.4000   -4.1569    0.0000 H   0  0  0  0  0  0  0  0  0  0  0  0
    2.4000   -1.3857    0.0000 C   0  0  0  0  0  0  0  0  0  0  0  0
    4.0000   -1.3857    0.0000 H   0  0  0  0  0  0  0  0  0  0  0  0
    1.6000   -0.0000    0.0000 C   0  0  0  0  0  0  0  0  0  0  0  0
    2.4000    1.3856    0.0000 Br  0  0  0  0  0  0  0  0  0  0  0  0
  1  2  1  0  0  0  0
  1  3  4  0  0  0  0
  3  4  1  0  0  0  0
  3  5  4  0  0  0  0
  5  6  1  0  0  0  0
  5  7  4  0  0  0  0
  7  8  1  0  0  0  0
  7  9  4  0  0  0  0
  9 10  1  0  0  0  0
  9 11  4  0  0  0  0
 11  1  4  0  0  0  0
 11 12  1  0  0  0  0
M  END
> <CAS>
1072-85-1

> <NAME>
1-bromo-2-fluorobenzene

> <preferred_name>
Benzene, 1-bromo-2-fluoro-

> <iupac>
1-Bromo-2-fluorobenzene

> <SMILES>
Fc1ccccc1Br

> <Canonical_QSARr>
Fc1ccccc1Br

> <InChI_Code_QSARr>
InChI=1S/C6H4BrF/c7-5-3-1-2-4-6(5)8/h1-4H

> <InChI Key_QSARr>
IPWBFGUBXWMIPR-UHFFFAOYSA-N

> <Salt_Solvent>
?

> <WS Temperature>
25

> <WS Reference>
YALKOWSKY,SH & DANNENFELSER,RM (1992)

> <dsstox_substance_id>
DTXSID5061459

> <LogMolar>
-2.6958

$$$$
1078-71-3
  -INDIGO-01081615412D

 33 33  0  0  0  0  0  0  0  0999 V2000
   -4.8000    0.0000    0.0000 C   0  0  0  0  0  0  0  0  0  0  0  0
   -5.6001    1.3856    0.0000 C   0  0  0  0  0  0  0  0  0  0  0  0
   -4.8000    2.7713    0.0000 H   0  0  0  0  0  0  0  0  0  0  0  0
   -7.1999    1.3856    0.0000 C   0  0  0  0  0  0  0  0  0  0  0  0
   -7.9999    2.7713    0.0000 H   0  0  0  0  0  0  0  0  0  0  0  0
   -7.9999   -0.0000    0.0000 C   0  0  0  0  0  0  0  0  0  0  0  0
   -9.6000    0.0000    0.0000 H   0  0  0  0  0  0  0  0  0  0  0  0
   -7.1999   -1.3856    0.0000 C   0  0  0  0  0  0  0  0  0  0  0  0
   -7.9999   -2.7713    0.0000 H   0  0  0  0  0  0  0  0  0  0  0  0
   -5.6001   -1.3856    0.0000 C   0  0  0  0  0  0  0  0  0  0  0  0
   -4.8000   -2.7713    0.0000 H   0  0  0  0  0  0  0  0  0  0  0  0
   -3.2000    0.0000    0.0000 C   0  0  0  0  0  0  0  0  0  0  0  0
   -1.5999    0.0000    0.0000 C   0  0  0  0  0  0  0  0  0  0  0  0
   -0.0001    0.0000    0.0000 C   0  0  0  0  0  0  0  0  0  0  0  0
    1.6000    0.0000    0.0000 C   0  0  0  0  0  0  0  0  0  0  0  0
    3.2000    0.0000    0.0000 C   0  0  0  0  0  0  0  0  0  0  0  0
    4.8001    0.0000    0.0000 C   0  0  0  0  0  0  0  0  0  0  0  0
    6.3999    0.0000    0.0000 C   0  0  0  0  0  0  0  0  0  0  0  0
    8.0000    0.0000    0.0000 H   0  0  0  0  0  0  0  0  0  0  0  0
    7.2000    1.3856    0.0000 H   0  0  0  0  0  0  0  0  0  0  0  0
    7.2000   -1.3856    0.0000 H   0  0  0  0  0  0  0  0  0  0  0  0
    4.8001    1.6000    0.0000 H   0  0  0  0  0  0  0  0  0  0  0  0
    4.8001   -1.6000    0.0000 H   0  0  0  0  0  0  0  0  0  0  0  0
    3.2000   -1.6000    0.0000 H   0  0  0  0  0  0  0  0  0  0  0  0
    3.2000    1.6000    0.0000 H   0  0  0  0  0  0  0  0  0  0  0  0
    1.6000   -1.6000    0.0000 H   0  0  0  0  0  0  0  0  0  0  0  0
    1.6000    1.6000    0.0000 H   0  0  0  0  0  0  0  0  0  0  0  0
   -0.0001   -1.6000    0.0000 H   0  0  0  0  0  0  0  0  0  0  0  0
   -0.0001    1.6000    0.0000 H   0  0  0  0  0  0  0  0  0  0  0  0
   -1.5999   -1.6000    0.0000 H   0  0  0  0  0  0  0  0  0  0  0  0
   -1.5999    1.6000    0.0000 H   0  0  0  0  0  0  0  0  0  0  0  0
   -3.2000   -1.6000    0.0000 H   0  0  0  0  0  0  0  0  0  0  0  0
   -3.2000    1.6000    0.0000 H   0  0  0  0  0  0  0  0  0  0  0  0
  1  2  4  0  0  0  0
  2  3  1  0  0  0  0
  2  4  4  0  0  0  0
  4  5  1  0  0  0  0
  4  6  4  0  0  0  0
  6  7  1  0  0  0  0
  6  8  4  0  0  0  0
  8  9  1  0  0  0  0
  8 10  4  0  0  0  0
 10  1  4  0  0  0  0
 10 11  1  0  0  0  0
  1 12  1  0  0  0  0
 12 13  1  0  0  0  0
 13 14  1  0  0  0  0
 14 15  1  0  0  0  0
 15 16  1  0  0  0  0
 16 17  1  0  0  0  0
 17 18  1  0  0  0  0
 18 19  1  0  0  0  0
 18 20  1  0  0  0  0
 18 21  1  0  0  0  0
 17 22  1  0  0  0  0
 17 23  1  0  0  0  0
 16 24  1  0  0  0  0
 16 25  1  0  0  0  0
 15 26  1  0  0  0  0
 15 27  1  0  0  0  0
 14 28  1  0  0  0  0
 14 29  1  0  0  0  0
 13 30  1  0  0  0  0
 13 31  1  0  0  0  0
 12 32  1  0  0  0  0
 12 33  1  0  0  0  0
M  END
> <CAS>
1078-71-3

> <NAME>
1-PHENYLHEPTANE

> <preferred_name>
Heptylbenzene

> <iupac>
Heptylbenzene

> <SMILES>
CCCCCCCc1ccccc1

> <Canonical_QSARr>
CCCCCCCc1ccccc1

> <InChI_Code_QSARr>
InChI=1S/C13H20/c1-2-3-4-5-7-10-13-11-8-6-9-12-13/h6,8-9,11-12H,2-5,7,10H2,1H3

> <InChI Key_QSARr>
LBNXAWYDQUGHGX-UHFFFAOYSA-N

> <Salt_Solvent>
?

> <WS Temperature>
25

> <WS Reference>
WASIK,SP ET AL. (1981)

> <dsstox_substance_id>
DTXSID3061477

> <LogMolar>
-5.5959

$$$$
1085-98-9
  -INDIGO-01081615412D

 29 29  0  0  0  0  0  0  0  0999 V2000
    0.0001    0.0001    0.0000 S   0  0  0  0  0  0  0  0  0  0  0  0
    1.3856    0.8000    0.0000 O   0  0  0  0  0  0  0  0  0  0  0  0
   -1.3856   -0.8000    0.0000 O   0  0  0  0  0  0  0  0  0  0  0  0
    0.8000   -1.3856    0.0000 N   0  0  0  0  0  0  0  0  0  0  0  0
    2.4000   -1.3856    0.0000 C   0  0  0  0  0  0  0  0  0  0  0  0
    4.0000   -1.3856    0.0000 H   0  0  0  0  0  0  0  0  0  0  0  0
    3.2000   -2.7712    0.0000 H   0  0  0  0  0  0  0  0  0  0  0  0
    3.2000    0.0001    0.0000 H   0  0  0  0  0  0  0  0  0  0  0  0
    0.0001   -2.7712    0.0000 C   0  0  0  0  0  0  0  0  0  0  0  0
   -0.7999   -4.1569    0.0000 H   0  0  0  0  0  0  0  0  0  0  0  0
    0.8000   -4.1569    0.0000 H   0  0  0  0  0  0  0  0  0  0  0  0
   -1.5999   -2.7712    0.0000 H   0  0  0  0  0  0  0  0  0  0  0  0
   -0.7999    1.3856    0.0000 N   0  0  0  0  0  0  0  0  0  0  0  0
   -2.4001    1.3856    0.0000 C   0  0  0  0  0  0  0  0  0  0  0  0
   -3.2001    2.7713    0.0000 C   0  0  0  0  0  0  0  0  0  0  0  0
   -2.4001    4.1569    0.0000 H   0  0  0  0  0  0  0  0  0  0  0  0
   -4.8000    2.7712    0.0000 C   0  0  0  0  0  0  0  0  0  0  0  0
   -5.6000    4.1569    0.0000 H   0  0  0  0  0  0  0  0  0  0  0  0
   -5.6000    1.3856    0.0000 C   0  0  0  0  0  0  0  0  0  0  0  0
   -7.2000    1.3856    0.0000 H   0  0  0  0  0  0  0  0  0  0  0  0
   -4.8000   -0.0001    0.0000 C   0  0  0  0  0  0  0  0  0  0  0  0
   -5.6000   -1.3856    0.0000 H   0  0  0  0  0  0  0  0  0  0  0  0
   -3.2001   -0.0001    0.0000 C   0  0  0  0  0  0  0  0  0  0  0  0
   -2.4001   -1.3856    0.0000 H   0  0  0  0  0  0  0  0  0  0  0  0
    0.0001    2.7713    0.0000 S   0  0  0  0  0  0  0  0  0  0  0  0
    1.6000    2.7713    0.0000 C   0  0  0  0  0  0  0  0  0  0  0  0
    2.4000    4.1569    0.0000 Cl  0  0  0  0  0  0  0  0  0  0  0  0
    3.2000    2.7713    0.0000 Cl  0  0  0  0  0  0  0  0  0  0  0  0
    0.8000    4.1569    0.0000 F   0  0  0  0  0  0  0  0  0  0  0  0
  1  2  2  0  0  0  0
  1  3  2  0  0  0  0
  1  4  1  0  0  0  0
  4  5  1  0  0  0  0
  5  6  1  0  0  0  0
  5  7  1  0  0  0  0
  5  8  1  0  0  0  0
  4  9  1  0  0  0  0
  9 10  1  0  0  0  0
  9 11  1  0  0  0  0
  9 12  1  0  0  0  0
  1 13  1  0  0  0  0
 13 14  1  0  0  0  0
 14 15  4  0  0  0  0
 15 16  1  0  0  0  0
 15 17  4  0  0  0  0
 17 18  1  0  0  0  0
 17 19  4  0  0  0  0
 19 20  1  0  0  0  0
 19 21  4  0  0  0  0
 21 22  1  0  0  0  0
 21 23  4  0  0  0  0
 23 14  4  0  0  0  0
 23 24  1  0  0  0  0
 13 25  1  0  0  0  0
 25 26  1  0  0  0  0
 26 27  1  0  0  0  0
 26 28  1  0  0  0  0
 26 29  1  0  0  0  0
M  END
> <CAS>
1085-98-9

> <NAME>
DICHLOFLUANID

> <preferred_name>
Dichlofluanid

> <iupac>
N-{[dichloro(fluoro)methyl]sulfanyl}-N',N'-dimethyl-N-phenylsulfuric diamide

> <SMILES>
CN(C)S(=O)(=O)N(SC(F)(Cl)Cl)c1ccccc1

> <Canonical_QSARr>
CN(C)S(=O)(=O)N(SC(F)(Cl)Cl)c1ccccc1

> <InChI_Code_QSARr>
InChI=1S/C9H11Cl2FN2O2S2/c1-13(2)18(15,16)14(17-9(10,11)12)8-6-4-3-5-7-8/h3-7H,1-2H3

> <InChI Key_QSARr>
WURGXGVFSMYFCG-UHFFFAOYSA-N

> <Salt_Solvent>
?

> <WS Temperature>
20

> <WS Reference>
TOMLIN,C (1994)

> <dsstox_substance_id>
DTXSID5041851

> <LogMolar>
-5.4088

$$$$
1116-54-7
  -INDIGO-01081615412D

 19 18  0  0  0  0  0  0  0  0999 V2000
    2.7712   -3.2000    0.0000 O   0  0  0  0  0  0  0  0  0  0  0  0
    1.3857   -2.4000    0.0000 N   0  0  0  0  0  0  0  0  0  0  0  0
    1.3857   -0.8000    0.0000 N   0  0  0  0  0  0  0  0  0  0  0  0
    2.7712   -0.0000    0.0000 C   0  0  0  0  0  0  0  0  0  0  0  0
    4.1569    0.8000    0.0000 C   0  0  0  0  0  0  0  0  0  0  0  0
    5.5425    1.6000    0.0000 O   0  0  0  0  0  0  0  0  0  0  0  0
    6.9282    0.8000    0.0000 H   0  0  0  0  0  0  0  0  0  0  0  0
    4.9570   -0.5856    0.0000 H   0  0  0  0  0  0  0  0  0  0  0  0
    3.3570    2.1856    0.0000 H   0  0  0  0  0  0  0  0  0  0  0  0
    3.5713   -1.3856    0.0000 H   0  0  0  0  0  0  0  0  0  0  0  0
    1.9713    1.3856    0.0000 H   0  0  0  0  0  0  0  0  0  0  0  0
    0.0001   -0.0000    0.0000 C   0  0  0  0  0  0  0  0  0  0  0  0
   -1.3856    0.8000    0.0000 C   0  0  0  0  0  0  0  0  0  0  0  0
   -2.7713    1.6000    0.0000 O   0  0  0  0  0  0  0  0  0  0  0  0
   -4.1569    0.8000    0.0000 H   0  0  0  0  0  0  0  0  0  0  0  0
   -2.1857   -0.5856    0.0000 H   0  0  0  0  0  0  0  0  0  0  0  0
   -0.5857    2.1856    0.0000 H   0  0  0  0  0  0  0  0  0  0  0  0
    0.8000    1.3856    0.0000 H   0  0  0  0  0  0  0  0  0  0  0  0
   -0.8000   -1.3856    0.0000 H   0  0  0  0  0  0  0  0  0  0  0  0
  1  2  2  0  0  0  0
  2  3  1  0  0  0  0
  3  4  1  0  0  0  0
  4  5  1  0  0  0  0
  5  6  1  0  0  0  0
  6  7  1  0  0  0  0
  5  8  1  0  0  0  0
  5  9  1  0  0  0  0
  4 10  1  0  0  0  0
  4 11  1  0  0  0  0
  3 12  1  0  0  0  0
 12 13  1  0  0  0  0
 13 14  1  0  0  0  0
 14 15  1  0  0  0  0
 13 16  1  0  0  0  0
 13 17  1  0  0  0  0
 12 18  1  0  0  0  0
 12 19  1  0  0  0  0
M  END
> <CAS>
1116-54-7

> <NAME>
N-NITROSODIETHANOLAMINE

> <preferred_name>
N-Nitrosodiethanolamine

> <iupac>
2,2'-(nitrosoimino)diethanol

> <SMILES>
OCCN(CCO)N=O

> <Canonical_QSARr>
OCCN(CCO)N=O

> <InChI_Code_QSARr>
InChI=1S/C4H10N2O3/c7-3-1-6(5-9)2-4-8/h7-8H,1-4H2

> <InChI Key_QSARr>
YFCDLVPYFMHRQZ-UHFFFAOYSA-N

> <Salt_Solvent>
?

> <WS Temperature>


> <WS Reference>
IARC (1978)

> <dsstox_substance_id>
DTXSID7021027

> <LogMolar>
0.8724

$$$$
1119-40-0
  -INDIGO-01081615412D

 23 22  0  0  0  0  0  0  0  0999 V2000
    5.5999    1.3856    0.0000 C   0  0  0  0  0  0  0  0  0  0  0  0
    4.0001    1.3856    0.0000 O   0  0  0  0  0  0  0  0  0  0  0  0
    3.2000    0.0000    0.0000 C   0  0  0  0  0  0  0  0  0  0  0  0
    1.6000    0.0000    0.0000 C   0  0  0  0  0  0  0  0  0  0  0  0
    0.0001    0.0000    0.0000 C   0  0  0  0  0  0  0  0  0  0  0  0
   -1.6000   -0.0000    0.0000 C   0  0  0  0  0  0  0  0  0  0  0  0
   -3.2000   -0.0000    0.0000 C   0  0  0  0  0  0  0  0  0  0  0  0
   -4.0001   -1.3856    0.0000 O   0  0  0  0  0  0  0  0  0  0  0  0
   -5.5999   -1.3856    0.0000 C   0  0  0  0  0  0  0  0  0  0  0  0
   -7.2000   -1.3856    0.0000 H   0  0  0  0  0  0  0  0  0  0  0  0
   -6.4000   -2.7713    0.0000 H   0  0  0  0  0  0  0  0  0  0  0  0
   -6.4000   -0.0000    0.0000 H   0  0  0  0  0  0  0  0  0  0  0  0
   -4.0001    1.3856    0.0000 O   0  0  0  0  0  0  0  0  0  0  0  0
   -1.6000   -1.6000    0.0000 H   0  0  0  0  0  0  0  0  0  0  0  0
   -1.6000    1.6000    0.0000 H   0  0  0  0  0  0  0  0  0  0  0  0
    0.0001    1.6000    0.0000 H   0  0  0  0  0  0  0  0  0  0  0  0
    0.0001   -1.6000    0.0000 H   0  0  0  0  0  0  0  0  0  0  0  0
    1.6000   -1.6000    0.0000 H   0  0  0  0  0  0  0  0  0  0  0  0
    1.6000    1.6000    0.0000 H   0  0  0  0  0  0  0  0  0  0  0  0
    4.0001   -1.3856    0.0000 O   0  0  0  0  0  0  0  0  0  0  0  0
    7.2000    1.3856    0.0000 H   0  0  0  0  0  0  0  0  0  0  0  0
    6.4000    2.7713    0.0000 H   0  0  0  0  0  0  0  0  0  0  0  0
    6.4000    0.0000    0.0000 H   0  0  0  0  0  0  0  0  0  0  0  0
  1  2  1  0  0  0  0
  2  3  1  0  0  0  0
  3  4  1  0  0  0  0
  4  5  1  0  0  0  0
  5  6  1  0  0  0  0
  6  7  1  0  0  0  0
  7  8  1  0  0  0  0
  8  9  1  0  0  0  0
  9 10  1  0  0  0  0
  9 11  1  0  0  0  0
  9 12  1  0  0  0  0
  7 13  2  0  0  0  0
  6 14  1  0  0  0  0
  6 15  1  0  0  0  0
  5 16  1  0  0  0  0
  5 17  1  0  0  0  0
  4 18  1  0  0  0  0
  4 19  1  0  0  0  0
  3 20  2  0  0  0  0
  1 21  1  0  0  0  0
  1 22  1  0  0  0  0
  1 23  1  0  0  0  0
M  END
> <CAS>
1119-40-0

> <NAME>
PENTANEDIOIC ACID, DIMETHYL ESTER

> <preferred_name>
Dimethyl glutarate

> <iupac>
C7H12O4

> <SMILES>
COC(=O)CCCC(=O)OC

> <Canonical_QSARr>
COC(=O)CCCC(=O)OC

> <InChI_Code_QSARr>
InChI=1S/C7H12O4/c1-10-6(8)4-3-5-7(9)11-2/h3-5H2,1-2H3

> <InChI Key_QSARr>
XTDYIOOONNVFMA-UHFFFAOYSA-N

> <Salt_Solvent>
?

> <WS Temperature>
25

> <WS Reference>
CHEM EVAL RES INST JAPAN (2002)

> <dsstox_substance_id>
DTXSID3025122

> <LogMolar>
-0.4337

$$$$
1122-39-0
  -INDIGO-01081615412D

 20 20  0  0  0  0  0  0  0  0999 V2000
    2.7713    1.6000    0.0000 N   0  0  0  1  0  0  0  0  0  0  0  0
    1.3856    2.4000    0.0000 C   0  0  0  0  0  0  0  0  0  0  0  0
    1.3856    4.0000    0.0000 H   0  0  0  0  0  0  0  0  0  0  0  0
    0.0000    1.6000    0.0000 C   0  0  0  0  0  0  0  0  0  0  0  0
   -1.3857    2.4000    0.0000 C   0  0  0  0  0  0  0  0  0  0  0  0
   -2.7713    3.2000    0.0000 H   0  0  0  0  0  0  0  0  0  0  0  0
   -1.3857    4.0000    0.0000 H   0  0  0  0  0  0  0  0  0  0  0  0
   -2.7713    1.6000    0.0000 H   0  0  0  0  0  0  0  0  0  0  0  0
    0.0000    0.0000    0.0000 C   0  0  0  0  0  0  0  0  0  0  0  0
   -1.3856   -0.8000    0.0000 C   0  0  0  0  0  0  0  0  0  0  0  0
   -2.7713   -1.6000    0.0000 H   0  0  0  0  0  0  0  0  0  0  0  0
   -1.3856   -2.4000    0.0000 H   0  0  0  0  0  0  0  0  0  0  0  0
   -2.7713    0.0000    0.0000 H   0  0  0  0  0  0  0  0  0  0  0  0
    1.3856   -0.8000    0.0000 C   0  0  0  0  0  0  0  0  0  0  0  0
    1.3856   -2.4000    0.0000 H   0  0  0  0  0  0  0  0  0  0  0  0
    2.7713    0.0000    0.0000 C   0  0  0  0  0  0  0  0  0  0  0  0
    4.1570   -0.8000    0.0000 C   0  0  0  0  0  0  0  0  0  0  0  0
    5.5426   -1.6000    0.0000 H   0  0  0  0  0  0  0  0  0  0  0  0
    5.5426    0.0000    0.0000 H   0  0  0  0  0  0  0  0  0  0  0  0
    4.1570   -2.4000    0.0000 H   0  0  0  0  0  0  0  0  0  0  0  0
  1  2  4  0  0  0  0
  2  3  1  0  0  0  0
  2  4  4  0  0  0  0
  4  5  1  0  0  0  0
  5  6  1  0  0  0  0
  5  7  1  0  0  0  0
  5  8  1  0  0  0  0
  4  9  4  0  0  0  0
  9 10  1  0  0  0  0
 10 11  1  0  0  0  0
 10 12  1  0  0  0  0
 10 13  1  0  0  0  0
  9 14  4  0  0  0  0
 14 15  1  0  0  0  0
 14 16  4  0  0  0  0
 16  1  4  0  0  0  0
 16 17  1  0  0  0  0
 17 18  1  0  0  0  0
 17 19  1  0  0  0  0
 17 20  1  0  0  0  0
M  END
> <CAS>
1122-39-0

> <NAME>
2,4,5-TRIMETHYLPYRIDINE

> <preferred_name>
2,4,5-Trimethylpyridine

> <iupac>
2,4,5-TRIMETHYLPYRIDINE

> <SMILES>
Cc1c[n]c(C)cc1C

> <Canonical_QSARr>
Cc1c[n]c(C)cc1C

> <InChI_Code_QSARr>
InChI=1S/C8H11N/c1-6-4-8(3)9-5-7(6)2/h4-5H,1-3H3

> <InChI Key_QSARr>
MNDSSKADVGDFDF-UHFFFAOYSA-N

> <Salt_Solvent>
?

> <WS Temperature>
25

> <WS Reference>
BEILSTEIN

> <dsstox_substance_id>
DTXSID60149944

> <LogMolar>
-0.7824

$$$$
1123-63-3
  -INDIGO-01081615412D

 19 19  0  0  0  0  0  0  0  0999 V2000
   -3.2000    2.7713    0.0000 Cl  0  0  0  0  0  0  0  0  0  0  0  0
   -2.3999    1.3856    0.0000 C   0  0  0  0  0  0  0  0  0  0  0  0
   -3.2000    0.0000    0.0000 C   0  0  0  0  0  0  0  0  0  0  0  0
   -4.8000    0.0000    0.0000 H   0  0  0  0  0  0  0  0  0  0  0  0
   -2.3999   -1.3856    0.0000 C   0  0  0  0  0  0  0  0  0  0  0  0
   -3.2000   -2.7713    0.0000 C   0  0  0  0  0  0  0  0  0  0  0  0
   -3.9999   -4.1569    0.0000 H   0  0  0  0  0  0  0  0  0  0  0  0
   -4.8000   -2.7713    0.0000 H   0  0  0  0  0  0  0  0  0  0  0  0
   -2.3999   -4.1569    0.0000 H   0  0  0  0  0  0  0  0  0  0  0  0
   -0.7999   -1.3856    0.0000 C   0  0  0  0  0  0  0  0  0  0  0  0
    0.0000   -2.7713    0.0000 O   0  0  0  0  0  0  0  0  0  0  0  0
   -0.7999   -4.1569    0.0000 H   0  0  0  0  0  0  0  0  0  0  0  0
    0.0000    0.0000    0.0000 C   0  0  0  0  0  0  0  0  0  0  0  0
    1.6000    0.0000    0.0000 C   0  0  0  0  0  0  0  0  0  0  0  0
    3.2000    0.0000    0.0000 H   0  0  0  0  0  0  0  0  0  0  0  0
    2.4001    1.3856    0.0000 H   0  0  0  0  0  0  0  0  0  0  0  0
    2.4001   -1.3856    0.0000 H   0  0  0  0  0  0  0  0  0  0  0  0
   -0.7999    1.3856    0.0000 C   0  0  0  0  0  0  0  0  0  0  0  0
    0.0000    2.7713    0.0000 H   0  0  0  0  0  0  0  0  0  0  0  0
  1  2  1  0  0  0  0
  2  3  4  0  0  0  0
  3  4  1  0  0  0  0
  3  5  4  0  0  0  0
  5  6  1  0  0  0  0
  6  7  1  0  0  0  0
  6  8  1  0  0  0  0
  6  9  1  0  0  0  0
  5 10  4  0  0  0  0
 10 11  1  0  0  0  0
 11 12  1  0  0  0  0
 10 13  4  0  0  0  0
 13 14  1  0  0  0  0
 14 15  1  0  0  0  0
 14 16  1  0  0  0  0
 14 17  1  0  0  0  0
 13 18  4  0  0  0  0
 18  2  4  0  0  0  0
 18 19  1  0  0  0  0
M  END
> <CAS>
1123-63-3

> <NAME>
Phenol, 4-chloro-2,6-dimethyl-

> <preferred_name>
4-Chloro-2,6-xylenol

> <iupac>
4-Chloro-2,6-dimethylphenol

> <SMILES>
Cc1cc(Cl)cc(C)c1O

> <Canonical_QSARr>
Cc1cc(Cl)cc(C)c1O

> <InChI_Code_QSARr>
InChI=1S/C8H9ClO/c1-5-3-7(9)4-6(2)8(5)10/h3-4,10H,1-2H3

> <InChI Key_QSARr>
VWYKSJIPZHRLNO-UHFFFAOYSA-N

> <Salt_Solvent>
?

> <WS Temperature>
25

> <WS Reference>
BEILSTEIN

> <dsstox_substance_id>
DTXSID40149982

> <LogMolar>
-1.6763

$$$$
1126-61-0
  -INDIGO-01081615412D

 21 21  0  0  0  0  0  0  0  0999 V2000
   -3.2000    2.7713    0.0000 O   0  0  0  0  0  0  0  0  0  0  0  0
   -2.4000    1.3856    0.0000 C   0  0  0  0  0  0  0  0  0  0  0  0
   -3.2000   -0.0000    0.0000 C   0  0  0  0  0  0  0  0  0  0  0  0
   -4.8000   -0.0000    0.0000 O   0  0  0  0  0  0  0  0  0  0  0  0
   -5.6000   -1.3856    0.0000 H   0  0  0  0  0  0  0  0  0  0  0  0
   -2.4000   -1.3856    0.0000 C   0  0  0  0  0  0  0  0  0  0  0  0
   -3.2000   -2.7713    0.0000 H   0  0  0  0  0  0  0  0  0  0  0  0
   -0.8001   -1.3856    0.0000 C   0  0  0  0  0  0  0  0  0  0  0  0
    0.0001   -2.7713    0.0000 H   0  0  0  0  0  0  0  0  0  0  0  0
    0.0001    0.0000    0.0000 C   0  0  0  0  0  0  0  0  0  0  0  0
    1.6001    0.0000    0.0000 C   0  0  0  0  0  0  0  0  0  0  0  0
    3.2000    0.0000    0.0000 C   0  0  0  0  0  0  0  0  0  0  0  0
    4.0000   -1.3856    0.0000 C   0  0  0  0  0  0  0  0  0  0  0  0
    5.6000   -1.3856    0.0000 H   0  0  0  0  0  0  0  0  0  0  0  0
    3.2000   -2.7713    0.0000 H   0  0  0  0  0  0  0  0  0  0  0  0
    4.0000    1.3856    0.0000 H   0  0  0  0  0  0  0  0  0  0  0  0
    1.6001   -1.6000    0.0000 H   0  0  0  0  0  0  0  0  0  0  0  0
    1.6001    1.6000    0.0000 H   0  0  0  0  0  0  0  0  0  0  0  0
   -0.8001    1.3856    0.0000 C   0  0  0  0  0  0  0  0  0  0  0  0
   -0.0001    2.7713    0.0000 H   0  0  0  0  0  0  0  0  0  0  0  0
   -4.8000    2.7713    0.0000 H   0  0  0  0  0  0  0  0  0  0  0  0
  1  2  1  0  0  0  0
  2  3  4  0  0  0  0
  3  4  1  0  0  0  0
  4  5  1  0  0  0  0
  3  6  4  0  0  0  0
  6  7  1  0  0  0  0
  6  8  4  0  0  0  0
  8  9  1  0  0  0  0
  8 10  4  0  0  0  0
 10 11  1  0  0  0  0
 11 12  1  0  0  0  0
 12 13  2  0  0  0  0
 13 14  1  0  0  0  0
 13 15  1  0  0  0  0
 12 16  1  0  0  0  0
 11 17  1  0  0  0  0
 11 18  1  0  0  0  0
 10 19  4  0  0  0  0
 19  2  4  0  0  0  0
 19 20  1  0  0  0  0
  1 21  1  0  0  0  0
M  END
> <CAS>
1126-61-0

> <NAME>
1,2-Benzenediol, 4-(2-propenyl)-

> <preferred_name>
2-Hydroxychavicol

> <iupac>
4-prop-2-enylbenzene-1,2-diol

> <SMILES>
C=CCc1cc(O)c(O)cc1

> <Canonical_QSARr>
C=CCc1cc(O)c(O)cc1

> <InChI_Code_QSARr>
InChI=1S/C9H10O2/c1-2-3-7-4-5-8(10)9(11)6-7/h2,4-6,10-11H,1,3H2

> <InChI Key_QSARr>
FHEHIXJLCWUPCZ-UHFFFAOYSA-N

> <Salt_Solvent>
?

> <WS Temperature>
26

> <WS Reference>
BEILSTEIN

> <dsstox_substance_id>
DTXSID20150112

> <LogMolar>
-0.7787

$$$$
1131-60-8
  -INDIGO-01081615412D

 29 30  0  0  0  0  0  0  0  0999 V2000
    4.7271   -0.8335    0.0000 C   0  0  0  0  0  0  0  0  0  0  0  0
    4.1799    0.6700    0.0000 C   0  0  0  0  0  0  0  0  0  0  0  0
    5.2082    1.8956    0.0000 H   0  0  0  0  0  0  0  0  0  0  0  0
    2.6041    0.9478    0.0000 C   0  0  0  0  0  0  0  0  0  0  0  0
    2.0569    2.4513    0.0000 H   0  0  0  0  0  0  0  0  0  0  0  0
    1.5758   -0.2778    0.0000 C   0  0  0  0  0  0  0  0  0  0  0  0
   -0.0001    0.0000    0.0000 C   0  0  0  0  0  0  0  0  0  0  0  0
   -0.8000    1.3857    0.0000 C   0  0  0  0  0  0  0  0  0  0  0  0
    0.7035    1.9329    0.0000 H   0  0  0  0  0  0  0  0  0  0  0  0
   -1.0779    2.9613    0.0000 H   0  0  0  0  0  0  0  0  0  0  0  0
   -2.4001    1.3857    0.0000 C   0  0  0  0  0  0  0  0  0  0  0  0
   -2.1222    2.9613    0.0000 H   0  0  0  0  0  0  0  0  0  0  0  0
   -3.9034    1.9329    0.0000 H   0  0  0  0  0  0  0  0  0  0  0  0
   -3.2000    0.0000    0.0000 C   0  0  0  0  0  0  0  0  0  0  0  0
   -4.4257    1.0285    0.0000 H   0  0  0  0  0  0  0  0  0  0  0  0
   -4.4257   -1.0284    0.0000 H   0  0  0  0  0  0  0  0  0  0  0  0
   -2.4001   -1.3856    0.0000 C   0  0  0  0  0  0  0  0  0  0  0  0
   -3.9034   -1.9329    0.0000 H   0  0  0  0  0  0  0  0  0  0  0  0
   -2.1222   -2.9613    0.0000 H   0  0  0  0  0  0  0  0  0  0  0  0
   -0.8000   -1.3856    0.0000 C   0  0  0  0  0  0  0  0  0  0  0  0
   -1.0779   -2.9613    0.0000 H   0  0  0  0  0  0  0  0  0  0  0  0
    0.7035   -1.9329    0.0000 H   0  0  0  0  0  0  0  0  0  0  0  0
    1.2257    1.0285    0.0000 H   0  0  0  0  0  0  0  0  0  0  0  0
    2.1229   -1.7813    0.0000 C   0  0  0  0  0  0  0  0  0  0  0  0
    1.0944   -3.0070    0.0000 H   0  0  0  0  0  0  0  0  0  0  0  0
    3.6986   -2.0592    0.0000 C   0  0  0  0  0  0  0  0  0  0  0  0
    4.2459   -3.5627    0.0000 H   0  0  0  0  0  0  0  0  0  0  0  0
    6.3027   -1.1114    0.0000 O   0  0  0  0  0  0  0  0  0  0  0  0
    7.3312    0.1143    0.0000 H   0  0  0  0  0  0  0  0  0  0  0  0
  1  2  4  0  0  0  0
  2  3  1  0  0  0  0
  2  4  4  0  0  0  0
  4  5  1  0  0  0  0
  4  6  4  0  0  0  0
  6  7  1  0  0  0  0
  7  8  1  0  0  0  0
  8  9  1  0  0  0  0
  8 10  1  0  0  0  0
  8 11  1  0  0  0  0
 11 12  1  0  0  0  0
 11 13  1  0  0  0  0
 11 14  1  0  0  0  0
 14 15  1  0  0  0  0
 14 16  1  0  0  0  0
 14 17  1  0  0  0  0
 17 18  1  0  0  0  0
 17 19  1  0  0  0  0
 17 20  1  0  0  0  0
 20  7  1  0  0  0  0
 20 21  1  0  0  0  0
 20 22  1  0  0  0  0
  7 23  1  0  0  0  0
  6 24  4  0  0  0  0
 24 25  1  0  0  0  0
 24 26  4  0  0  0  0
 26  1  4  0  0  0  0
 26 27  1  0  0  0  0
  1 28  1  0  0  0  0
 28 29  1  0  0  0  0
M  END
> <CAS>
1131-60-8

> <NAME>
P-CYCLOHEXYLPHENOL

> <preferred_name>


> <iupac>


> <SMILES>
Oc1ccc(cc1)C1CCCCC1

> <Canonical_QSARr>
Oc1ccc(cc1)C1CCCCC1

> <InChI_Code_QSARr>
InChI=1S/C12H16O/c13-12-8-6-11(7-9-12)10-4-2-1-3-5-10/h6-10,13H,1-5H2

> <InChI Key_QSARr>
OAHMVZYHIJQTQC-UHFFFAOYSA-N

> <Salt_Solvent>
?

> <WS Temperature>
25

> <WS Reference>
BEILSTEIN

> <dsstox_substance_id>


> <LogMolar>
-3.468

$$$$
1177-87-3
  -INDIGO-01081615412D

 62 65  0  0  0  0  0  0  0  0999 V2000
    0.0000   -0.0001    0.0000 C   0  0  0  0  0  0  0  0  0  0  0  0
    0.9405    1.2944    0.0000 C   0  0  0  0  0  0  0  0  0  0  0  0
    2.0914    2.4059    0.0000 H   0  0  0  0  0  0  0  0  0  0  0  0
    1.1076    2.8857    0.0000 H   0  0  0  0  0  0  0  0  0  0  0  0
    2.4784    0.8534    0.0000 H   0  0  0  0  0  0  0  0  0  0  0  0
   -0.8001    1.3857    0.0000 C   0  0  0  0  0  0  0  0  0  0  0  0
    0.4256    2.4141    0.0000 H   0  0  0  0  0  0  0  0  0  0  0  0
   -1.0778    2.9613    0.0000 H   0  0  0  0  0  0  0  0  0  0  0  0
   -2.4000    1.3857    0.0000 C   0  0  0  0  0  0  0  0  0  0  0  0
   -2.1222    2.9613    0.0000 O   0  0  0  0  0  0  0  0  0  0  0  0
   -3.3479    3.9898    0.0000 H   0  0  0  0  0  0  0  0  0  0  0  0
   -3.4286    2.6113    0.0000 H   0  0  0  0  0  0  0  0  0  0  0  0
   -3.2001   -0.0001    0.0000 C   0  0  0  0  0  0  0  0  0  0  0  0
   -3.1763    0.9758    0.0000 F   0  0  0  0  0  0  0  0  0  0  0  0
   -2.4000   -1.3857    0.0000 C   0  0  0  0  0  0  0  0  0  0  0  0
   -3.2001   -2.7713    0.0000 C   0  0  0  0  0  0  0  0  0  0  0  0
   -4.8000   -2.7713    0.0000 C   0  0  0  0  0  0  0  0  0  0  0  0
   -5.6001   -1.3857    0.0000 C   0  0  0  0  0  0  0  0  0  0  0  0
   -7.2000   -1.3857    0.0000 C   0  0  0  0  0  0  0  0  0  0  0  0
   -8.0001   -2.7713    0.0000 H   0  0  0  0  0  0  0  0  0  0  0  0
   -8.0001   -0.0001    0.0000 C   0  0  0  0  0  0  0  0  0  0  0  0
   -9.6000   -0.0001    0.0000 O   0  0  0  0  0  0  0  0  0  0  0  0
   -7.2000    1.3857    0.0000 C   0  0  0  0  0  0  0  0  0  0  0  0
   -8.0001    2.7713    0.0000 H   0  0  0  0  0  0  0  0  0  0  0  0
   -5.6001    1.3857    0.0000 C   0  0  0  0  0  0  0  0  0  0  0  0
   -5.3223    2.9613    0.0000 H   0  0  0  0  0  0  0  0  0  0  0  0
   -4.8000   -0.0001    0.0000 C   0  0  0  0  0  0  0  0  0  0  0  0
   -4.3887    0.4902    0.0000 C   0  0  0  0  0  0  0  0  0  0  0  0
   -3.9999    1.3857    0.0000 H   0  0  0  0  0  0  0  0  0  0  0  0
   -4.9359    1.9938    0.0000 H   0  0  0  0  0  0  0  0  0  0  0  0
   -5.9886    0.4902    0.0000 H   0  0  0  0  0  0  0  0  0  0  0  0
   -6.3034   -3.3185    0.0000 H   0  0  0  0  0  0  0  0  0  0  0  0
   -4.5222   -4.3470    0.0000 H   0  0  0  0  0  0  0  0  0  0  0  0
   -3.4779   -4.3470    0.0000 H   0  0  0  0  0  0  0  0  0  0  0  0
   -1.9744   -3.7998    0.0000 H   0  0  0  0  0  0  0  0  0  0  0  0
   -1.5999   -2.7713    0.0000 H   0  0  0  0  0  0  0  0  0  0  0  0
   -0.8001   -1.3857    0.0000 C   0  0  0  0  0  0  0  0  0  0  0  0
   -0.6327   -2.9769    0.0000 H   0  0  0  0  0  0  0  0  0  0  0  0
    0.2707   -2.5746    0.0000 C   0  0  0  0  0  0  0  0  0  0  0  0
   -0.3801   -4.0364    0.0000 H   0  0  0  0  0  0  0  0  0  0  0  0
    1.0705   -3.9604    0.0000 H   0  0  0  0  0  0  0  0  0  0  0  0
    1.7323   -1.9239    0.0000 C   0  0  0  0  0  0  0  0  0  0  0  0
    2.2267   -3.4455    0.0000 C   0  0  0  0  0  0  0  0  0  0  0  0
    2.7212   -4.9673    0.0000 H   0  0  0  0  0  0  0  0  0  0  0  0
    3.7916   -3.7782    0.0000 H   0  0  0  0  0  0  0  0  0  0  0  0
    1.3788   -4.8024    0.0000 H   0  0  0  0  0  0  0  0  0  0  0  0
    3.2972   -1.5912    0.0000 H   0  0  0  0  0  0  0  0  0  0  0  0
    1.5649   -0.3327    0.0000 C   0  0  0  0  0  0  0  0  0  0  0  0
    1.7323    1.2586    0.0000 O   0  0  0  0  0  0  0  0  0  0  0  0
    3.1939    1.9093    0.0000 H   0  0  0  0  0  0  0  0  0  0  0  0
    3.1651   -0.3327    0.0000 C   0  0  0  0  0  0  0  0  0  0  0  0
    3.9649    1.0530    0.0000 O   0  0  0  0  0  0  0  0  0  0  0  0
    4.3908   -1.3611    0.0000 C   0  0  0  0  0  0  0  0  0  0  0  0
    5.6165   -2.3896    0.0000 O   0  0  0  0  0  0  0  0  0  0  0  0
    7.1199   -1.8423    0.0000 C   0  0  0  0  0  0  0  0  0  0  0  0
    8.3456   -2.8708    0.0000 C   0  0  0  0  0  0  0  0  0  0  0  0
    9.5713   -3.8993    0.0000 H   0  0  0  0  0  0  0  0  0  0  0  0
    9.8491   -2.3235    0.0000 H   0  0  0  0  0  0  0  0  0  0  0  0
    8.0678   -4.4465    0.0000 H   0  0  0  0  0  0  0  0  0  0  0  0
    7.3977   -0.2667    0.0000 O   0  0  0  0  0  0  0  0  0  0  0  0
    5.4191   -0.1355    0.0000 H   0  0  0  0  0  0  0  0  0  0  0  0
    3.3622   -2.5868    0.0000 H   0  0  0  0  0  0  0  0  0  0  0  0
  1  2  1  0  0  0  0
  2  3  1  0  0  0  0
  2  4  1  0  0  0  0
  2  5  1  0  0  0  0
  1  6  1  0  0  0  0
  6  7  1  0  0  0  0
  6  8  1  0  0  0  0
  6  9  1  0  0  0  0
  9 10  1  0  0  0  0
 10 11  1  0  0  0  0
  9 12  1  0  0  0  0
  9 13  1  0  0  0  0
 13 14  1  0  0  0  0
 13 15  1  0  0  0  0
 15 16  1  0  0  0  0
 16 17  1  0  0  0  0
 17 18  1  0  0  0  0
 18 19  2  0  0  0  0
 19 20  1  0  0  0  0
 19 21  1  0  0  0  0
 21 22  2  0  0  0  0
 21 23  1  0  0  0  0
 23 24  1  0  0  0  0
 23 25  2  0  0  0  0
 25 26  1  0  0  0  0
 25 27  1  0  0  0  0
 27 18  1  0  0  0  0
 27 13  1  0  0  0  0
 27 28  1  0  0  0  0
 28 29  1  0  0  0  0
 28 30  1  0  0  0  0
 28 31  1  0  0  0  0
 17 32  1  0  0  0  0
 17 33  1  0  0  0  0
 16 34  1  0  0  0  0
 16 35  1  0  0  0  0
 15 36  1  0  0  0  0
 15 37  1  0  0  0  0
 37  1  1  0  0  0  0
 37 38  1  0  0  0  0
 37 39  1  0  0  0  0
 39 40  1  0  0  0  0
 39 41  1  0  0  0  0
 39 42  1  0  0  0  0
 42 43  1  0  0  0  0
 43 44  1  0  0  0  0
 43 45  1  0  0  0  0
 43 46  1  0  0  0  0
 42 47  1  0  0  0  0
 42 48  1  0  0  0  0
 48  1  1  0  0  0  0
 48 49  1  0  0  0  0
 49 50  1  0  0  0  0
 48 51  1  0  0  0  0
 51 52  2  0  0  0  0
 51 53  1  0  0  0  0
 53 54  1  0  0  0  0
 54 55  1  0  0  0  0
 55 56  1  0  0  0  0
 56 57  1  0  0  0  0
 56 58  1  0  0  0  0
 56 59  1  0  0  0  0
 55 60  2  0  0  0  0
 53 61  1  0  0  0  0
 53 62  1  0  0  0  0
M  END
> <CAS>
1177-87-3

> <NAME>
DEXAMETHASONE-21-ACETATE

> <preferred_name>
Dexamethasone acetate

> <iupac>
(11beta,16alpha)-9-fluoro-11,17-dihydroxy-16-methyl-3,20-dioxopregna-1,4-dien-21-yl acetate

> <SMILES>
CC(=O)OCC(=O)[C@@]1(O)[C@H](C)C[C@H]2[C@@H]3CCC4=CC(=O)C=C[C@]4(C)[C@@]3(F)[C@@H](O)C[C@]12C

> <Canonical_QSARr>
CC(=O)OCC(=O)C1(O)C(C)CC2C3CCC4=CC(=O)C=CC4(C)C3(F)C(O)CC12C

> <InChI_Code_QSARr>
InChI=1S/C24H31FO6/c1-13-9-18-17-6-5-15-10-16(27)7-8-21(15,3)23(17,25)19(28)11-22(18,4)24(13,30)20(29)12-31-14(2)26/h7-8,10,13,17-19,28,30H,5-6,9,11-12H2,1-4H3

> <InChI Key_QSARr>
AKUJBENLRBOFTD-UHFFFAOYSA-N

> <Salt_Solvent>
?

> <WS Temperature>
25

> <WS Reference>
YALKOWSKY,SH & VALVANI,SC (1980)

> <dsstox_substance_id>
DTXSID8022901

> <LogMolar>
-4.9

$$$$
1186-79-4, 35392-80-4
  -INDIGO-01081615412D

 26 25  0  0  0  0  0  0  0  0999 V2000
   -0.8000    1.3857    0.0000 C   0  0  0  0  0  0  0  0  0  0  0  0
   -0.2527    2.8892    0.0000 O   0  0  0  0  0  0  0  0  0  0  0  0
   -2.3757    1.6635    0.0000 O   0  0  0  0  0  0  0  0  0  0  0  0
   -2.9229    3.1670    0.0000 H   0  0  0  0  0  0  0  0  0  0  0  0
   -0.0001    0.0000    0.0000 C   0  0  0  0  0  0  0  0  0  0  0  0
   -1.3857   -0.8000    0.0000 C   0  0  0  0  0  0  0  0  0  0  0  0
   -2.7713   -1.6000    0.0000 C   0  0  0  0  0  0  0  0  0  0  0  0
   -4.1569   -2.4000    0.0000 H   0  0  0  0  0  0  0  0  0  0  0  0
   -2.7713   -3.2000    0.0000 H   0  0  0  0  0  0  0  0  0  0  0  0
   -4.1569   -0.8000    0.0000 H   0  0  0  0  0  0  0  0  0  0  0  0
   -0.5856   -2.1856    0.0000 H   0  0  0  0  0  0  0  0  0  0  0  0
   -2.1856    0.5856    0.0000 H   0  0  0  0  0  0  0  0  0  0  0  0
    1.3857    0.8000    0.0000 C   0  0  0  0  0  0  0  0  0  0  0  0
    2.7713    1.6000    0.0000 C   0  0  0  0  0  0  0  0  0  0  0  0
    4.1569    2.4000    0.0000 C   0  0  0  0  0  0  0  0  0  0  0  0
    5.5426    3.2000    0.0000 H   0  0  0  0  0  0  0  0  0  0  0  0
    4.1569    4.0000    0.0000 H   0  0  0  0  0  0  0  0  0  0  0  0
    5.5426    1.6000    0.0000 H   0  0  0  0  0  0  0  0  0  0  0  0
    1.9712    2.9856    0.0000 H   0  0  0  0  0  0  0  0  0  0  0  0
    3.5713    0.2144    0.0000 H   0  0  0  0  0  0  0  0  0  0  0  0
    2.1857   -0.5857    0.0000 C   0  0  0  0  0  0  0  0  0  0  0  0
    1.6383   -2.0892    0.0000 O   0  0  0  0  0  0  0  0  0  0  0  0
    3.7613   -0.8635    0.0000 O   0  0  0  0  0  0  0  0  0  0  0  0
    4.3085   -2.3670    0.0000 H   0  0  0  0  0  0  0  0  0  0  0  0
    0.5856    2.1857    0.0000 H   0  0  0  0  0  0  0  0  0  0  0  0
    0.8001   -1.3857    0.0000 H   0  0  0  0  0  0  0  0  0  0  0  0
  1  2  2  0  0  0  0
  1  3  1  0  0  0  0
  3  4  1  0  0  0  0
  1  5  1  0  0  0  0
  5  6  1  0  0  0  0
  6  7  1  0  0  0  0
  7  8  1  0  0  0  0
  7  9  1  0  0  0  0
  7 10  1  0  0  0  0
  6 11  1  0  0  0  0
  6 12  1  0  0  0  0
  5 13  1  0  0  0  0
 13 14  1  0  0  0  0
 14 15  1  0  0  0  0
 15 16  1  0  0  0  0
 15 17  1  0  0  0  0
 15 18  1  0  0  0  0
 14 19  1  0  0  0  0
 14 20  1  0  0  0  0
 13 21  1  0  0  0  0
 21 22  2  0  0  0  0
 21 23  1  0  0  0  0
 23 24  1  0  0  0  0
 13 25  1  0  0  0  0
  5 26  1  0  0  0  0
M  END
> <CAS>
1186-79-4, 35392-80-4

> <NAME>
Butanedioic acid, 2,3-diethyl-, Butanedioic acid, 2,3-diethyl-, (R*,S*)-

> <preferred_name>


> <iupac>


> <SMILES>
CCC(C(CC)C(O)=O)C(O)=O

> <Canonical_QSARr>
CCC(C(CC)C(O)=O)C(O)=O

> <InChI_Code_QSARr>
InChI=1S/C8H14O4/c1-3-5(7(9)10)6(4-2)8(11)12/h5-6H,3-4H2,1-2H3,(H,9,10)(H,11,12)

> <InChI Key_QSARr>
KJXMXCRSMLOXBM-UHFFFAOYSA-N

> <Salt_Solvent>
?

> <WS Temperature>
23

> <WS Reference>
BEILSTEIN

> <dsstox_substance_id>


> <LogMolar>
-1.15825

$$$$
1188-21-2, 19764-30-8
  -INDIGO-01081615412D

 27 26  0  0  0  0  0  0  0  0999 V2000
   -0.0000    1.6000    0.0000 C   0  0  0  0  0  0  0  0  0  0  0  0
   -0.0000   -0.0000    0.0000 C   0  0  0  0  0  0  0  0  0  0  0  0
    1.5756   -0.2779    0.0000 C   0  0  0  0  0  0  0  0  0  0  0  0
    3.1515   -0.5556    0.0000 C   0  0  0  0  0  0  0  0  0  0  0  0
    3.1515   -2.1557    0.0000 C   0  0  0  0  0  0  0  0  0  0  0  0
    1.9258   -3.1842    0.0000 O   0  0  0  0  0  0  0  0  0  0  0  0
    4.5371   -2.9557    0.0000 O   0  0  0  0  0  0  0  0  0  0  0  0
    4.5371   -4.5557    0.0000 H   0  0  0  0  0  0  0  0  0  0  0  0
    4.7514   -0.5556    0.0000 N   0  0  0  0  0  0  0  0  0  0  0  0
    5.5514    0.8299    0.0000 C   0  0  0  0  0  0  0  0  0  0  0  0
    4.7514    2.2156    0.0000 O   0  0  0  0  0  0  0  0  0  0  0  0
    7.1513    0.8299    0.0000 C   0  0  0  0  0  0  0  0  0  0  0  0
    8.7514    0.8299    0.0000 H   0  0  0  0  0  0  0  0  0  0  0  0
    7.9513    2.2156    0.0000 H   0  0  0  0  0  0  0  0  0  0  0  0
    7.9513   -0.5556    0.0000 H   0  0  0  0  0  0  0  0  0  0  0  0
    5.5514   -1.9413    0.0000 H   0  0  0  0  0  0  0  0  0  0  0  0
    3.1515    1.0444    0.0000 H   0  0  0  0  0  0  0  0  0  0  0  0
    1.2979   -1.8535    0.0000 H   0  0  0  0  0  0  0  0  0  0  0  0
    1.8536    1.2979    0.0000 H   0  0  0  0  0  0  0  0  0  0  0  0
   -1.5999   -0.0000    0.0000 C   0  0  0  0  0  0  0  0  0  0  0  0
   -3.2000   -0.0000    0.0000 H   0  0  0  0  0  0  0  0  0  0  0  0
   -2.4000   -1.3856    0.0000 H   0  0  0  0  0  0  0  0  0  0  0  0
   -2.4000    1.3857    0.0000 H   0  0  0  0  0  0  0  0  0  0  0  0
   -0.0000   -1.6000    0.0000 H   0  0  0  0  0  0  0  0  0  0  0  0
   -0.0000    3.2000    0.0000 H   0  0  0  0  0  0  0  0  0  0  0  0
   -1.3856    2.4000    0.0000 H   0  0  0  0  0  0  0  0  0  0  0  0
    1.3856    2.4000    0.0000 H   0  0  0  0  0  0  0  0  0  0  0  0
  1  2  1  0  0  0  0
  2  3  1  0  0  0  0
  3  4  1  0  0  0  0
  4  5  1  0  0  0  0
  5  6  2  0  0  0  0
  5  7  1  0  0  0  0
  7  8  1  0  0  0  0
  4  9  1  0  0  0  0
  9 10  1  0  0  0  0
 10 11  2  0  0  0  0
 10 12  1  0  0  0  0
 12 13  1  0  0  0  0
 12 14  1  0  0  0  0
 12 15  1  0  0  0  0
  9 16  1  0  0  0  0
  4 17  1  0  0  0  0
  3 18  1  0  0  0  0
  3 19  1  0  0  0  0
  2 20  1  0  0  0  0
 20 21  1  0  0  0  0
 20 22  1  0  0  0  0
 20 23  1  0  0  0  0
  2 24  1  0  0  0  0
  1 25  1  0  0  0  0
  1 26  1  0  0  0  0
  1 27  1  0  0  0  0
M  END
> <CAS>
1188-21-2, 19764-30-8

> <NAME>
L-Leucine, N-acetyl-, D-Leucine, N-acetyl-

> <preferred_name>
Acetyl-L-leucine

> <iupac>
N-acetyl-L-leucine

> <SMILES>
CC(=O)N[C@@H](CC(C)C)C(O)=O

> <Canonical_QSARr>
CC(=O)NC(CC(C)C)C(O)=O

> <InChI_Code_QSARr>
InChI=1S/C8H15NO3/c1-5(2)4-7(8(11)12)9-6(3)10/h5,7H,4H2,1-3H3,(H,9,10)(H,11,12)

> <InChI Key_QSARr>
WXNXCEHXYPACJF-UHFFFAOYSA-N

> <Salt_Solvent>
?

> <WS Temperature>
25

> <WS Reference>
BEILSTEIN

> <dsstox_substance_id>
DTXSID6045870

> <LogMolar>
-1.3301

$$$$
1194-98-5
  -INDIGO-01081615412D

 16 16  0  0  0  0  0  0  0  0999 V2000
   -2.7713    1.6000    0.0000 C   0  0  0  0  0  0  0  0  0  0  0  0
   -2.7713    0.0000    0.0000 C   0  0  0  0  0  0  0  0  0  0  0  0
   -4.1569   -0.8000    0.0000 O   0  0  0  0  0  0  0  0  0  0  0  0
   -5.5426    0.0000    0.0000 H   0  0  0  0  0  0  0  0  0  0  0  0
   -1.3856   -0.8000    0.0000 C   0  0  0  0  0  0  0  0  0  0  0  0
   -1.3856   -2.4000    0.0000 H   0  0  0  0  0  0  0  0  0  0  0  0
    0.0000    0.0000    0.0000 C   0  0  0  0  0  0  0  0  0  0  0  0
    1.3857   -0.8000    0.0000 C   0  0  0  0  0  0  0  0  0  0  0  0
    1.3857   -2.4000    0.0000 O   0  0  0  0  0  0  0  0  0  0  0  0
    2.7713    0.0000    0.0000 H   0  0  0  0  0  0  0  0  0  0  0  0
    0.0000    1.6000    0.0000 C   0  0  0  0  0  0  0  0  0  0  0  0
    1.3857    2.4000    0.0000 O   0  0  0  0  0  0  0  0  0  0  0  0
    1.3857    4.0000    0.0000 H   0  0  0  0  0  0  0  0  0  0  0  0
   -1.3856    2.4000    0.0000 C   0  0  0  0  0  0  0  0  0  0  0  0
   -1.3857    4.0000    0.0000 H   0  0  0  0  0  0  0  0  0  0  0  0
   -4.1570    2.4000    0.0000 H   0  0  0  0  0  0  0  0  0  0  0  0
  1  2  4  0  0  0  0
  2  3  1  0  0  0  0
  3  4  1  0  0  0  0
  2  5  4  0  0  0  0
  5  6  1  0  0  0  0
  5  7  4  0  0  0  0
  7  8  1  0  0  0  0
  8  9  2  0  0  0  0
  8 10  1  0  0  0  0
  7 11  4  0  0  0  0
 11 12  1  0  0  0  0
 12 13  1  0  0  0  0
 11 14  4  0  0  0  0
 14  1  4  0  0  0  0
 14 15  1  0  0  0  0
  1 16  1  0  0  0  0
M  END
> <CAS>
1194-98-5

> <NAME>
2,5-Dihydroxybenzaldehyde

> <preferred_name>
Benzaldehyde, 2,5-dihydroxy-

> <iupac>
2,5-Dihydroxybenzaldehyde

> <SMILES>
Oc1cc(C=O)c(O)cc1

> <Canonical_QSARr>
Oc1cc(C=O)c(O)cc1

> <InChI_Code_QSARr>
InChI=1S/C7H6O3/c8-4-5-3-6(9)1-2-7(5)10/h1-4,9-10H

> <InChI Key_QSARr>
CLFRCXCBWIQVRN-UHFFFAOYSA-N

> <Salt_Solvent>
?

> <WS Temperature>
25

> <WS Reference>
JIN,LJ ET AL. (1998)

> <dsstox_substance_id>
DTXSID1061601

> <LogMolar>
-1.0004

$$$$
1214-39-7
  -INDIGO-01081615412D

 28 30  0  0  0  0  0  0  0  0999 V2000
    4.8000    2.7713    0.0000 C   0  0  0  0  0  0  0  0  0  0  0  0
    4.0000    4.1570    0.0000 N   0  0  0  1  0  0  0  0  0  0  0  0
    2.4001    4.1570    0.0000 C   0  0  0  0  0  0  0  0  0  0  0  0
    1.6000    5.5426    0.0000 H   0  0  0  0  0  0  0  0  0  0  0  0
    1.6000    2.7713    0.0000 N   0  0  0  1  0  0  0  0  0  0  0  0
    0.0001    2.7713    0.0000 H   0  0  0  0  0  0  0  0  0  0  0  0
    2.4001    1.3857    0.0000 C   0  0  0  0  0  0  0  0  0  0  0  0
    1.6000   -0.0000    0.0000 N   0  0  0  0  0  0  0  0  0  0  0  0
    0.0001   -0.0000    0.0000 C   0  0  0  0  0  0  0  0  0  0  0  0
   -1.6000   -0.0000    0.0000 C   0  0  0  0  0  0  0  0  0  0  0  0
   -2.3999    1.3857    0.0000 C   0  0  0  0  0  0  0  0  0  0  0  0
   -1.6000    2.7713    0.0000 H   0  0  0  0  0  0  0  0  0  0  0  0
   -4.0000    1.3857    0.0000 C   0  0  0  0  0  0  0  0  0  0  0  0
   -4.8001    2.7713    0.0000 H   0  0  0  0  0  0  0  0  0  0  0  0
   -4.8001   -0.0000    0.0000 C   0  0  0  0  0  0  0  0  0  0  0  0
   -6.4000   -0.0000    0.0000 H   0  0  0  0  0  0  0  0  0  0  0  0
   -4.0000   -1.3856    0.0000 C   0  0  0  0  0  0  0  0  0  0  0  0
   -4.8001   -2.7713    0.0000 H   0  0  0  0  0  0  0  0  0  0  0  0
   -2.3999   -1.3856    0.0000 C   0  0  0  0  0  0  0  0  0  0  0  0
   -1.6000   -2.7713    0.0000 H   0  0  0  0  0  0  0  0  0  0  0  0
    0.0001   -1.6000    0.0000 H   0  0  0  0  0  0  0  0  0  0  0  0
    0.0001    1.6000    0.0000 H   0  0  0  0  0  0  0  0  0  0  0  0
    2.4001   -1.3856    0.0000 H   0  0  0  0  0  0  0  0  0  0  0  0
    4.0000    1.3857    0.0000 C   0  0  0  0  0  0  0  0  0  0  0  0
    5.0705    0.1966    0.0000 N   0  0  0  1  0  0  0  0  0  0  0  0
    6.5323    0.8474    0.0000 C   0  0  0  0  0  0  0  0  0  0  0  0
    7.9179    0.0474    0.0000 H   0  0  0  0  0  0  0  0  0  0  0  0
    6.3650    2.4386    0.0000 N   0  0  0  1  0  0  0  0  0  0  0  0
  1  2  4  0  0  0  0
  2  3  4  0  0  0  0
  3  4  1  0  0  0  0
  3  5  4  0  0  0  0
  5  6  1  0  0  0  0
  5  7  4  0  0  0  0
  7  8  1  0  0  0  0
  8  9  1  0  0  0  0
  9 10  1  0  0  0  0
 10 11  4  0  0  0  0
 11 12  1  0  0  0  0
 11 13  4  0  0  0  0
 13 14  1  0  0  0  0
 13 15  4  0  0  0  0
 15 16  1  0  0  0  0
 15 17  4  0  0  0  0
 17 18  1  0  0  0  0
 17 19  4  0  0  0  0
 19 10  4  0  0  0  0
 19 20  1  0  0  0  0
  9 21  1  0  0  0  0
  9 22  1  0  0  0  0
  8 23  1  0  0  0  0
  7 24  4  0  0  0  0
 24  1  1  0  0  0  0
 24 25  4  0  0  0  0
 25 26  4  0  0  0  0
 26 27  1  0  0  0  0
 26 28  4  0  0  0  0
 28  1  4  0  0  0  0
M  END
> <CAS>
1214-39-7

> <NAME>
1H-PURIN-6-AMINE, N-(PHENYLMETHYL)-

> <preferred_name>
N-Benzyladenine

> <iupac>
N-benzyl-1H-purin-6-amine

> <SMILES>
C(Nc1:[nH]:c:[n]:c2:[n]:c:[n]:c-2:1)c1ccccc1

> <Canonical_QSARr>
C(Nc1:[nH]:c:[n]:c2:[n]:c:[n]:c-2:1)c1ccccc1

> <InChI_Code_QSARr>
InChI=1S/C12H11N5/c1-2-4-9(5-3-1)6-13-11-10-12(15-7-14-10)17-8-16-11/h1-5,7-8H,6H2,(H2,13,14,15,16,17)

> <InChI Key_QSARr>
NWBJYWHLCVSVIJ-UHFFFAOYSA-N

> <Salt_Solvent>
?

> <WS Temperature>
20

> <WS Reference>
TOMLIN,C (1997)

> <dsstox_substance_id>
DTXSID7032630

> <LogMolar>
-3.5745

$$$$
1239-45-8
  -INDIGO-01081615412D

 44 47  0  0  0  0  0  0  0  0999 V2000
    0.7999    1.3856    0.0000 C   0  0  0  0  0  0  0  0  0  0  0  0
   -0.0001    0.0001    0.0000 N   0  0  0  1  0  0  0  0  0  0  0  0
   -1.5999    0.0001    0.0000 C   0  0  0  0  0  0  0  0  0  0  0  0
   -2.6284    1.2257    0.0000 C   0  0  0  0  0  0  0  0  0  0  0  0
   -4.1320    0.6785    0.0000 C   0  0  0  0  0  0  0  0  0  0  0  0
   -4.7752    0.0769    0.0000 H   0  0  0  0  0  0  0  0  0  0  0  0
   -5.3576    1.7069    0.0000 C   0  0  0  0  0  0  0  0  0  0  0  0
   -6.8611    1.1596    0.0000 H   0  0  0  0  0  0  0  0  0  0  0  0
   -5.0799    3.2826    0.0000 C   0  0  0  0  0  0  0  0  0  0  0  0
   -6.3055    4.3111    0.0000 H   0  0  0  0  0  0  0  0  0  0  0  0
   -3.5763    3.8298    0.0000 C   0  0  0  0  0  0  0  0  0  0  0  0
   -3.2984    5.4055    0.0000 H   0  0  0  0  0  0  0  0  0  0  0  0
   -2.3507    2.8014    0.0000 C   0  0  0  0  0  0  0  0  0  0  0  0
   -0.8472    3.3485    0.0000 H   0  0  0  0  0  0  0  0  0  0  0  0
   -2.3999   -1.3857    0.0000 C   0  0  0  0  0  0  0  0  0  0  0  0
   -4.0000   -1.3857    0.0000 C   0  0  0  0  0  0  0  0  0  0  0  0
   -4.8000   -2.7713    0.0000 C   0  0  0  0  0  0  0  0  0  0  0  0
   -6.4000   -2.7713    0.0000 N   0  0  0  0  0  0  0  0  0  0  0  0
   -7.2000   -4.1570    0.0000 H   0  0  0  0  0  0  0  0  0  0  0  0
   -7.2000   -1.3857    0.0000 H   0  0  0  0  0  0  0  0  0  0  0  0
   -4.0000   -4.1570    0.0000 C   0  0  0  0  0  0  0  0  0  0  0  0
   -2.3999   -4.1570    0.0000 C   0  0  0  0  0  0  0  0  0  0  0  0
   -1.5999   -5.5426    0.0000 H   0  0  0  0  0  0  0  0  0  0  0  0
   -1.5999   -2.7713    0.0000 C   0  0  0  0  0  0  0  0  0  0  0  0
   -0.0001   -2.7713    0.0000 C   0  0  0  0  0  0  0  0  0  0  0  0
    0.7999   -4.1570    0.0000 C   0  0  0  0  0  0  0  0  0  0  0  0
    2.4000   -4.1570    0.0000 C   0  0  0  0  0  0  0  0  0  0  0  0
    3.2000   -2.7713    0.0000 C   0  0  0  0  0  0  0  0  0  0  0  0
    4.8000   -2.7713    0.0000 N   0  0  0  0  0  0  0  0  0  0  0  0
    5.6000   -4.1570    0.0000 H   0  0  0  0  0  0  0  0  0  0  0  0
    5.6000   -1.3857    0.0000 H   0  0  0  0  0  0  0  0  0  0  0  0
    2.4000   -1.3857    0.0000 C   0  0  0  0  0  0  0  0  0  0  0  0
    3.2000    0.0001    0.0000 H   0  0  0  0  0  0  0  0  0  0  0  0
    0.7999   -1.3857    0.0000 C   0  0  0  0  0  0  0  0  0  0  0  0
    3.2000   -5.5426    0.0000 H   0  0  0  0  0  0  0  0  0  0  0  0
   -0.0001   -5.5426    0.0000 H   0  0  0  0  0  0  0  0  0  0  0  0
   -4.8000   -5.5426    0.0000 H   0  0  0  0  0  0  0  0  0  0  0  0
   -4.6793   -0.8250    0.0000 H   0  0  0  0  0  0  0  0  0  0  0  0
    1.5999    2.7714    0.0000 C   0  0  0  0  0  0  0  0  0  0  0  0
    2.4000    4.1569    0.0000 H   0  0  0  0  0  0  0  0  0  0  0  0
    3.2000    2.7714    0.0000 H   0  0  0  0  0  0  0  0  0  0  0  0
    0.7999    4.1569    0.0000 H   0  0  0  0  0  0  0  0  0  0  0  0
    2.1857    0.5856    0.0000 H   0  0  0  0  0  0  0  0  0  0  0  0
   -0.5856    2.1857    0.0000 H   0  0  0  0  0  0  0  0  0  0  0  0
  1  2  1  0  0  0  0
  2  3  4  0  0  0  0
  3  4  1  0  0  0  0
  4  5  4  0  0  0  0
  5  6  1  0  0  0  0
  5  7  4  0  0  0  0
  7  8  1  0  0  0  0
  7  9  4  0  0  0  0
  9 10  1  0  0  0  0
  9 11  4  0  0  0  0
 11 12  1  0  0  0  0
 11 13  4  0  0  0  0
 13  4  4  0  0  0  0
 13 14  1  0  0  0  0
  3 15  4  0  0  0  0
 15 16  4  0  0  0  0
 16 17  4  0  0  0  0
 17 18  1  0  0  0  0
 18 19  1  0  0  0  0
 18 20  1  0  0  0  0
 17 21  4  0  0  0  0
 21 22  4  0  0  0  0
 22 23  1  0  0  0  0
 22 24  4  0  0  0  0
 24 15  4  0  0  0  0
 24 25  4  0  0  0  0
 25 26  4  0  0  0  0
 26 27  4  0  0  0  0
 27 28  4  0  0  0  0
 28 29  1  0  0  0  0
 29 30  1  0  0  0  0
 29 31  1  0  0  0  0
 28 32  4  0  0  0  0
 32 33  1  0  0  0  0
 32 34  4  0  0  0  0
 34  2  4  0  0  0  0
 34 25  4  0  0  0  0
 27 35  1  0  0  0  0
 26 36  1  0  0  0  0
 21 37  1  0  0  0  0
 16 38  1  0  0  0  0
  1 39  1  0  0  0  0
 39 40  1  0  0  0  0
 39 41  1  0  0  0  0
 39 42  1  0  0  0  0
  1 43  1  0  0  0  0
  1 44  1  0  0  0  0
M  CHG  1   2   1
M  END
> <CAS>
1239-45-8

> <NAME>
Homidium bromide

> <preferred_name>
Ethidium bromide

> <iupac>
3,8-diamino-5-ethyl-6-phenylphenanthridinium bromide

> <SMILES>
[Br-].CC[n+]1c(c2cc(N)ccc2c2ccc(N)cc12)-c1ccccc1

> <Canonical_QSARr>
CC[n+]1c(c2cc(N)ccc2c2ccc(N)cc12)-c1ccccc1

> <InChI_Code_QSARr>
InChI=1S/C21H19N3/c1-2-24-20-13-16(23)9-11-18(20)17-10-8-15(22)12-19(17)21(24)14-6-4-3-5-7-14/h3-13,23H,2,22H2,1H3/p+1

> <InChI Key_QSARr>
QTANTQQOYSUMLC-UHFFFAOYSA-O

> <Salt_Solvent>
[Br-]

> <WS Temperature>


> <WS Reference>
GREEN,FJ (1990)

> <dsstox_substance_id>
DTXSID8025258

> <LogMolar>
-1.2948

$$$$
1260-17-9
  -INDIGO-01081615412D

 55 58  0  0  0  0  0  0  0  0999 V2000
    6.4001   -5.5425    0.0000 C   0  0  0  0  0  0  0  0  0  0  0  0
    7.2000   -4.1569    0.0000 C   0  0  0  0  0  0  0  0  0  0  0  0
    8.7999   -4.1569    0.0000 C   0  0  0  0  0  0  0  0  0  0  0  0
    9.5999   -5.5425    0.0000 C   0  0  0  0  0  0  0  0  0  0  0  0
    8.7999   -6.9282    0.0000 O   0  0  0  0  0  0  0  0  0  0  0  0
   11.2001   -5.5425    0.0000 O   0  0  0  0  0  0  0  0  0  0  0  0
   12.0000   -6.9282    0.0000 H   0  0  0  0  0  0  0  0  0  0  0  0
    9.5999   -2.7712    0.0000 C   0  0  0  0  0  0  0  0  0  0  0  0
   11.2001   -2.7712    0.0000 O   0  0  0  0  0  0  0  0  0  0  0  0
   12.0000   -1.3857    0.0000 H   0  0  0  0  0  0  0  0  0  0  0  0
    8.7999   -1.3857    0.0000 C   0  0  0  0  0  0  0  0  0  0  0  0
    9.5999   -0.0001    0.0000 H   0  0  0  0  0  0  0  0  0  0  0  0
    7.2000   -1.3857    0.0000 C   0  0  0  0  0  0  0  0  0  0  0  0
    6.4001   -0.0001    0.0000 C   0  0  0  0  0  0  0  0  0  0  0  0
    7.2000    1.3856    0.0000 O   0  0  0  0  0  0  0  0  0  0  0  0
    4.7999   -0.0001    0.0000 C   0  0  0  0  0  0  0  0  0  0  0  0
    3.9999    1.3856    0.0000 C   0  0  0  0  0  0  0  0  0  0  0  0
    4.7999    2.7713    0.0000 O   0  0  0  0  0  0  0  0  0  0  0  0
    3.9999    4.1569    0.0000 H   0  0  0  0  0  0  0  0  0  0  0  0
    2.4000    1.3856    0.0000 C   0  0  0  0  0  0  0  0  0  0  0  0
    1.6001    2.7713    0.0000 O   0  0  0  0  0  0  0  0  0  0  0  0
    2.4000    4.1569    0.0000 H   0  0  0  0  0  0  0  0  0  0  0  0
    1.6001   -0.0001    0.0000 C   0  0  0  0  0  0  0  0  0  0  0  0
   -0.0001   -0.0001    0.0000 C   0  0  0  0  0  0  0  0  0  0  0  0
   -0.8001    1.3856    0.0000 C   0  0  0  0  0  0  0  0  0  0  0  0
   -1.0778    2.9614    0.0000 O   0  0  0  0  0  0  0  0  0  0  0  0
    0.1479    3.9898    0.0000 H   0  0  0  0  0  0  0  0  0  0  0  0
    0.7035    1.9328    0.0000 H   0  0  0  0  0  0  0  0  0  0  0  0
   -2.4000    1.3856    0.0000 C   0  0  0  0  0  0  0  0  0  0  0  0
   -3.9036    1.9328    0.0000 O   0  0  0  0  0  0  0  0  0  0  0  0
   -4.1813    3.5086    0.0000 H   0  0  0  0  0  0  0  0  0  0  0  0
   -2.1223    2.9614    0.0000 H   0  0  0  0  0  0  0  0  0  0  0  0
   -3.1999   -0.0001    0.0000 C   0  0  0  0  0  0  0  0  0  0  0  0
   -4.4256    1.0285    0.0000 O   0  0  0  0  0  0  0  0  0  0  0  0
   -5.9292    0.4812    0.0000 H   0  0  0  0  0  0  0  0  0  0  0  0
   -3.9361   -0.2528    0.0000 H   0  0  0  0  0  0  0  0  0  0  0  0
   -2.4000   -1.3857    0.0000 C   0  0  0  0  0  0  0  0  0  0  0  0
   -3.9036   -1.9329    0.0000 C   0  0  0  0  0  0  0  0  0  0  0  0
   -5.4069   -2.4801    0.0000 O   0  0  0  0  0  0  0  0  0  0  0  0
   -5.6849   -4.0557    0.0000 H   0  0  0  0  0  0  0  0  0  0  0  0
   -3.3561   -3.4363    0.0000 H   0  0  0  0  0  0  0  0  0  0  0  0
   -4.2283   -1.2257    0.0000 H   0  0  0  0  0  0  0  0  0  0  0  0
   -2.1223   -2.9613    0.0000 H   0  0  0  0  0  0  0  0  0  0  0  0
   -0.8001   -1.3857    0.0000 O   0  0  0  0  0  0  0  0  0  0  0  0
    1.2258   -1.0285    0.0000 H   0  0  0  0  0  0  0  0  0  0  0  0
    2.4000   -1.3857    0.0000 C   0  0  0  0  0  0  0  0  0  0  0  0
    1.6001   -2.7712    0.0000 O   0  0  0  0  0  0  0  0  0  0  0  0
    2.4000   -4.1569    0.0000 H   0  0  0  0  0  0  0  0  0  0  0  0
    3.9999   -1.3857    0.0000 C   0  0  0  0  0  0  0  0  0  0  0  0
    4.7999   -2.7712    0.0000 C   0  0  0  0  0  0  0  0  0  0  0  0
    3.9999   -4.1569    0.0000 O   0  0  0  0  0  0  0  0  0  0  0  0
    6.4001   -2.7712    0.0000 C   0  0  0  0  0  0  0  0  0  0  0  0
    5.6001   -6.9282    0.0000 H   0  0  0  0  0  0  0  0  0  0  0  0
    7.2000   -6.9282    0.0000 H   0  0  0  0  0  0  0  0  0  0  0  0
    4.7999   -5.5425    0.0000 H   0  0  0  0  0  0  0  0  0  0  0  0
  1  2  1  0  0  0  0
  2  3  4  0  0  0  0
  3  4  1  0  0  0  0
  4  5  2  0  0  0  0
  4  6  1  0  0  0  0
  6  7  1  0  0  0  0
  3  8  4  0  0  0  0
  8  9  1  0  0  0  0
  9 10  1  0  0  0  0
  8 11  4  0  0  0  0
 11 12  1  0  0  0  0
 11 13  4  0  0  0  0
 13 14  1  0  0  0  0
 14 15  2  0  0  0  0
 14 16  1  0  0  0  0
 16 17  4  0  0  0  0
 17 18  1  0  0  0  0
 18 19  1  0  0  0  0
 17 20  4  0  0  0  0
 20 21  1  0  0  0  0
 21 22  1  0  0  0  0
 20 23  4  0  0  0  0
 23 24  1  0  0  0  0
 24 25  1  0  0  0  0
 25 26  1  0  0  0  0
 26 27  1  0  0  0  0
 25 28  1  0  0  0  0
 25 29  1  0  0  0  0
 29 30  1  0  0  0  0
 30 31  1  0  0  0  0
 29 32  1  0  0  0  0
 29 33  1  0  0  0  0
 33 34  1  0  0  0  0
 34 35  1  0  0  0  0
 33 36  1  0  0  0  0
 33 37  1  0  0  0  0
 37 38  1  0  0  0  0
 38 39  1  0  0  0  0
 39 40  1  0  0  0  0
 38 41  1  0  0  0  0
 38 42  1  0  0  0  0
 37 43  1  0  0  0  0
 37 44  1  0  0  0  0
 44 24  1  0  0  0  0
 24 45  1  0  0  0  0
 23 46  4  0  0  0  0
 46 47  1  0  0  0  0
 47 48  1  0  0  0  0
 46 49  4  0  0  0  0
 49 16  4  0  0  0  0
 49 50  1  0  0  0  0
 50 51  2  0  0  0  0
 50 52  1  0  0  0  0
 52  2  4  0  0  0  0
 52 13  4  0  0  0  0
  1 53  1  0  0  0  0
  1 54  1  0  0  0  0
  1 55  1  0  0  0  0
M  END
> <CAS>
1260-17-9

> <NAME>
CARMINIC ACID

> <preferred_name>
Carminic acid

> <iupac>
(1S)-1,5-anhydro-1-(7-carboxy-1,3,4,6-tetrahydroxy-8-methyl-9,10-dioxo-9,10-dihydroanthracen-2-yl)-D-glucitol

> <SMILES>
Cc1c(c(O)cc2c1C(=O)c1c(C2=O)c(O)c(O)c([C@@H]2O[C@H](CO)[C@@H](O)[C@H](O)[C@H]2O)c1O)C(O)=O

> <Canonical_QSARr>
Cc1c(c(O)cc2c1C(=O)c1c(C2=O)c(O)c(O)c(C2OC(CO)C(O)C(O)C2O)c1O)C(O)=O

> <InChI_Code_QSARr>
InChI=1S/C22H20O13/c1-4-8-5(2-6(24)9(4)22(33)34)13(25)10-11(15(8)27)16(28)12(18(30)17(10)29)21-20(32)19(31)14(26)7(3-23)35-21/h2,7,14,19-21,23-24,26,28-32H,3H2,1H3,(H,33,34)

> <InChI Key_QSARr>
DGQLVPJVXFOQEV-UHFFFAOYSA-N

> <Salt_Solvent>
?

> <WS Temperature>
25

> <WS Reference>
YALKOWSKY,SH & DANNENFELSER,RM (1992)

> <dsstox_substance_id>
DTXSID9022817

> <LogMolar>
-2.5784

$$$$
1435-60-5
  -INDIGO-01081615412D

 27 28  0  0  0  0  0  0  0  0999 V2000
    3.1999    0.0000    0.0000 C   0  0  0  0  0  0  0  0  0  0  0  0
    4.8000    0.0000    0.0000 N   0  0  0  0  0  0  0  0  0  0  0  0
    5.6000   -1.3856    0.0000 N   0  0  0  0  0  0  0  0  0  0  0  0
    7.2001   -1.3856    0.0000 C   0  0  0  0  0  0  0  0  0  0  0  0
    8.0001   -2.7713    0.0000 C   0  0  0  0  0  0  0  0  0  0  0  0
    7.2001   -4.1569    0.0000 H   0  0  0  0  0  0  0  0  0  0  0  0
    9.6000   -2.7713    0.0000 C   0  0  0  0  0  0  0  0  0  0  0  0
   10.3999   -4.1569    0.0000 H   0  0  0  0  0  0  0  0  0  0  0  0
   10.3999   -1.3856    0.0000 C   0  0  0  0  0  0  0  0  0  0  0  0
   12.0001   -1.3856    0.0000 O   0  0  0  0  0  0  0  0  0  0  0  0
   12.8000   -2.7713    0.0000 H   0  0  0  0  0  0  0  0  0  0  0  0
    9.6000    0.0000    0.0000 C   0  0  0  0  0  0  0  0  0  0  0  0
   10.3999    1.3856    0.0000 H   0  0  0  0  0  0  0  0  0  0  0  0
    8.0001    0.0000    0.0000 C   0  0  0  0  0  0  0  0  0  0  0  0
    7.2001    1.3856    0.0000 H   0  0  0  0  0  0  0  0  0  0  0  0
    2.3999    1.3856    0.0000 C   0  0  0  0  0  0  0  0  0  0  0  0
    3.1999    2.7713    0.0000 H   0  0  0  0  0  0  0  0  0  0  0  0
    0.8000    1.3856    0.0000 C   0  0  0  0  0  0  0  0  0  0  0  0
    0.0001    2.7713    0.0000 H   0  0  0  0  0  0  0  0  0  0  0  0
    0.0001    0.0000    0.0000 C   0  0  0  0  0  0  0  0  0  0  0  0
   -1.6000    0.0000    0.0000 N   0  0  0  0  0  0  0  0  0  0  0  0
   -2.4000    1.3856    0.0000 O   0  0  0  0  0  0  0  0  0  0  0  0
   -2.4000   -1.3856    0.0000 O   0  0  0  0  0  0  0  0  0  0  0  0
    0.8000   -1.3856    0.0000 C   0  0  0  0  0  0  0  0  0  0  0  0
    0.0001   -2.7713    0.0000 H   0  0  0  0  0  0  0  0  0  0  0  0
    2.3999   -1.3856    0.0000 C   0  0  0  0  0  0  0  0  0  0  0  0
    3.1999   -2.7713    0.0000 H   0  0  0  0  0  0  0  0  0  0  0  0
  1  2  1  0  0  0  0
  2  3  2  0  0  0  0
  3  4  1  0  0  0  0
  4  5  4  0  0  0  0
  5  6  1  0  0  0  0
  5  7  4  0  0  0  0
  7  8  1  0  0  0  0
  7  9  4  0  0  0  0
  9 10  1  0  0  0  0
 10 11  1  0  0  0  0
  9 12  4  0  0  0  0
 12 13  1  0  0  0  0
 12 14  4  0  0  0  0
 14  4  4  0  0  0  0
 14 15  1  0  0  0  0
  1 16  4  0  0  0  0
 16 17  1  0  0  0  0
 16 18  4  0  0  0  0
 18 19  1  0  0  0  0
 18 20  4  0  0  0  0
 20 21  1  0  0  0  0
 21 22  1  0  0  0  0
 21 23  2  0  0  0  0
 20 24  4  0  0  0  0
 24 25  1  0  0  0  0
 24 26  4  0  0  0  0
 26  1  4  0  0  0  0
 26 27  1  0  0  0  0
M  CHG  2  21   1  22  -1
M  END
> <CAS>
1435-60-5

> <NAME>
4-(4-NITROPHENYLAZO)PHENOL

> <preferred_name>
4-[(4-Nitrophenyl)azo]phenol

> <iupac>


> <SMILES>
[O-][N+](=O)c1ccc(cc1)N=Nc1ccc(O)cc1

> <Canonical_QSARr>
[O-][N+](=O)c1ccc(cc1)N=Nc1ccc(O)cc1

> <InChI_Code_QSARr>
InChI=1S/C12H9N3O3/c16-12-7-3-10(4-8-12)14-13-9-1-5-11(6-2-9)15(17)18/h1-8,16H/b14-13+

> <InChI Key_QSARr>
NRJPVIOTANUINF-BUHFOSPRSA-N

> <Salt_Solvent>
?

> <WS Temperature>
25

> <WS Reference>
BAUGHMAN,GL & PERENICH,TA (1988)

> <dsstox_substance_id>
DTXSID2061690

> <LogMolar>
-4.796

$$$$
1456-28-6
  -INDIGO-01081615412D

 22 22  0  0  0  0  0  0  0  0999 V2000
    0.0000    0.0000    0.0000 C   0  0  0  0  0  0  0  0  0  0  0  0
    1.5035   -0.5472    0.0000 C   0  0  0  0  0  0  0  0  0  0  0  0
    2.7292    0.4813    0.0000 H   0  0  0  0  0  0  0  0  0  0  0  0
    3.0070   -1.0945    0.0000 H   0  0  0  0  0  0  0  0  0  0  0  0
    1.7813   -2.1229    0.0000 H   0  0  0  0  0  0  0  0  0  0  0  0
   -0.8001    1.3856    0.0000 O   0  0  0  0  0  0  0  0  0  0  0  0
   -2.4001    1.3856    0.0000 C   0  0  0  0  0  0  0  0  0  0  0  0
   -2.1221    2.9614    0.0000 C   0  0  0  0  0  0  0  0  0  0  0  0
   -1.8443    4.5370    0.0000 H   0  0  0  0  0  0  0  0  0  0  0  0
   -3.3478    3.9898    0.0000 H   0  0  0  0  0  0  0  0  0  0  0  0
   -0.6186    3.5085    0.0000 H   0  0  0  0  0  0  0  0  0  0  0  0
   -3.9036    1.9329    0.0000 H   0  0  0  0  0  0  0  0  0  0  0  0
   -3.2000    0.0000    0.0000 C   0  0  0  0  0  0  0  0  0  0  0  0
   -4.4257    1.0284    0.0000 H   0  0  0  0  0  0  0  0  0  0  0  0
   -4.4257   -1.0285    0.0000 H   0  0  0  0  0  0  0  0  0  0  0  0
   -2.4001   -1.3857    0.0000 N   0  0  0  0  0  0  0  0  0  0  0  0
   -3.2000   -2.7713    0.0000 N   0  0  0  0  0  0  0  0  0  0  0  0
   -4.8000   -2.7713    0.0000 O   0  0  0  0  0  0  0  0  0  0  0  0
   -0.8001   -1.3857    0.0000 C   0  0  0  0  0  0  0  0  0  0  0  0
   -1.0779   -2.9613    0.0000 H   0  0  0  0  0  0  0  0  0  0  0  0
    0.5856   -2.1857    0.0000 H   0  0  0  0  0  0  0  0  0  0  0  0
    1.2257    1.0284    0.0000 H   0  0  0  0  0  0  0  0  0  0  0  0
  1  2  1  0  0  0  0
  2  3  1  0  0  0  0
  2  4  1  0  0  0  0
  2  5  1  0  0  0  0
  1  6  1  0  0  0  0
  6  7  1  0  0  0  0
  7  8  1  0  0  0  0
  8  9  1  0  0  0  0
  8 10  1  0  0  0  0
  8 11  1  0  0  0  0
  7 12  1  0  0  0  0
  7 13  1  0  0  0  0
 13 14  1  0  0  0  0
 13 15  1  0  0  0  0
 13 16  1  0  0  0  0
 16 17  1  0  0  0  0
 17 18  2  0  0  0  0
 16 19  1  0  0  0  0
 19  1  1  0  0  0  0
 19 20  1  0  0  0  0
 19 21  1  0  0  0  0
  1 22  1  0  0  0  0
M  END
> <CAS>
1456-28-6

> <NAME>
2,6-DIMETHYL-N-NITROSOMORPHOLINE

> <preferred_name>
Nitroso-2,6-dimethylmorpholine

> <iupac>
2,6-dimethyl-4-nitrosomorpholine

> <SMILES>
CC1CN(CC(C)O1)N=O

> <Canonical_QSARr>
CC1CN(CC(C)O1)N=O

> <InChI_Code_QSARr>
InChI=1S/C6H12N2O2/c1-5-3-8(7-9)4-6(2)10-5/h5-6H,3-4H2,1-2H3

> <InChI Key_QSARr>
DPYMAXOKJUBANR-UHFFFAOYSA-N

> <Salt_Solvent>
?

> <WS Temperature>
24

> <WS Reference>
MIRVISH,SS ET AL. (1976)

> <dsstox_substance_id>
DTXSID4021470

> <LogMolar>
-0.0655

$$$$
1470-94-6
  -INDIGO-01081615412D

 20 21  0  0  0  0  0  0  0  0999 V2000
   -0.0000    0.0000    0.0000 C   0  0  0  0  0  0  0  0  0  0  0  0
   -0.9404   -1.2944    0.0000 C   0  0  0  0  0  0  0  0  0  0  0  0
   -1.5912   -2.7561    0.0000 H   0  0  0  0  0  0  0  0  0  0  0  0
    0.4452   -2.0944    0.0000 H   0  0  0  0  0  0  0  0  0  0  0  0
   -2.4621   -0.8000    0.0000 C   0  0  0  0  0  0  0  0  0  0  0  0
   -3.8479   -1.6000    0.0000 C   0  0  0  0  0  0  0  0  0  0  0  0
   -5.2335   -0.8000    0.0000 C   0  0  0  0  0  0  0  0  0  0  0  0
   -5.2335    0.8000    0.0000 C   0  0  0  0  0  0  0  0  0  0  0  0
   -6.6191    1.6000    0.0000 O   0  0  0  0  0  0  0  0  0  0  0  0
   -8.0047    0.8000    0.0000 H   0  0  0  0  0  0  0  0  0  0  0  0
   -3.8479    1.6000    0.0000 C   0  0  0  0  0  0  0  0  0  0  0  0
   -3.8479    3.2000    0.0000 H   0  0  0  0  0  0  0  0  0  0  0  0
   -2.4621    0.8000    0.0000 C   0  0  0  0  0  0  0  0  0  0  0  0
   -0.9404    1.2944    0.0000 C   0  0  0  0  0  0  0  0  0  0  0  0
    0.4452    2.0944    0.0000 H   0  0  0  0  0  0  0  0  0  0  0  0
   -1.5912    2.7561    0.0000 H   0  0  0  0  0  0  0  0  0  0  0  0
   -6.6191   -1.6000    0.0000 H   0  0  0  0  0  0  0  0  0  0  0  0
   -3.8479   -3.2000    0.0000 H   0  0  0  0  0  0  0  0  0  0  0  0
    1.1890   -1.0706    0.0000 H   0  0  0  0  0  0  0  0  0  0  0  0
    1.1890    1.0706    0.0000 H   0  0  0  0  0  0  0  0  0  0  0  0
  1  2  1  0  0  0  0
  2  3  1  0  0  0  0
  2  4  1  0  0  0  0
  2  5  1  0  0  0  0
  5  6  4  0  0  0  0
  6  7  4  0  0  0  0
  7  8  4  0  0  0  0
  8  9  1  0  0  0  0
  9 10  1  0  0  0  0
  8 11  4  0  0  0  0
 11 12  1  0  0  0  0
 11 13  4  0  0  0  0
 13  5  4  0  0  0  0
 13 14  1  0  0  0  0
 14  1  1  0  0  0  0
 14 15  1  0  0  0  0
 14 16  1  0  0  0  0
  7 17  1  0  0  0  0
  6 18  1  0  0  0  0
  1 19  1  0  0  0  0
  1 20  1  0  0  0  0
M  END
> <CAS>
1470-94-6

> <NAME>
5-INDANOL

> <preferred_name>
Indan-5-ol

> <iupac>
indan-5-ol

> <SMILES>
Oc1cc2CCCc2cc1

> <Canonical_QSARr>
Oc1cc2CCCc2cc1

> <InChI_Code_QSARr>
InChI=1S/C9H10O/c10-9-5-4-7-2-1-3-8(7)6-9/h4-6,10H,1-3H2

> <InChI Key_QSARr>
PEHSSTUGJUBZBI-UHFFFAOYSA-N

> <Salt_Solvent>
?

> <WS Temperature>
25

> <WS Reference>
SOUTHWORTH,GR & KELLER,JL (1986)

> <dsstox_substance_id>
DTXSID0051732

> <LogMolar>
-1.3285

$$$$
1563-66-2
  -INDIGO-01081615412D

 31 32  0  0  0  0  0  0  0  0999 V2000
    7.3322   -0.5382    0.0000 O   0  0  0  0  0  0  0  0  0  0  0  0
    6.5323    0.8474    0.0000 C   0  0  0  0  0  0  0  0  0  0  0  0
    4.9322    0.8474    0.0000 O   0  0  0  0  0  0  0  0  0  0  0  0
    4.1323   -0.5382    0.0000 C   0  0  0  0  0  0  0  0  0  0  0  0
    2.5323   -0.5383    0.0000 C   0  0  0  0  0  0  0  0  0  0  0  0
    1.4616    0.6508    0.0000 O   0  0  0  0  0  0  0  0  0  0  0  0
   -0.0000   -0.0000    0.0000 C   0  0  0  0  0  0  0  0  0  0  0  0
   -0.4943    1.5217    0.0000 C   0  0  0  0  0  0  0  0  0  0  0  0
   -0.9888    3.0434    0.0000 H   0  0  0  0  0  0  0  0  0  0  0  0
   -2.0596    1.8544    0.0000 H   0  0  0  0  0  0  0  0  0  0  0  0
    0.5762    2.7107    0.0000 H   0  0  0  0  0  0  0  0  0  0  0  0
   -1.5651   -0.3327    0.0000 C   0  0  0  0  0  0  0  0  0  0  0  0
   -3.1301   -0.6653    0.0000 H   0  0  0  0  0  0  0  0  0  0  0  0
   -2.6356    0.8564    0.0000 H   0  0  0  0  0  0  0  0  0  0  0  0
   -2.3162   -1.7454    0.0000 H   0  0  0  0  0  0  0  0  0  0  0  0
    0.1672   -1.5913    0.0000 C   0  0  0  0  0  0  0  0  0  0  0  0
   -1.2184   -2.3913    0.0000 H   0  0  0  0  0  0  0  0  0  0  0  0
   -0.0000   -3.1825    0.0000 H   0  0  0  0  0  0  0  0  0  0  0  0
    1.7324   -1.9239    0.0000 C   0  0  0  0  0  0  0  0  0  0  0  0
    2.5323   -3.3095    0.0000 C   0  0  0  0  0  0  0  0  0  0  0  0
    1.7324   -4.6952    0.0000 H   0  0  0  0  0  0  0  0  0  0  0  0
    4.1323   -3.3095    0.0000 C   0  0  0  0  0  0  0  0  0  0  0  0
    4.9322   -4.6952    0.0000 H   0  0  0  0  0  0  0  0  0  0  0  0
    4.9322   -1.9239    0.0000 C   0  0  0  0  0  0  0  0  0  0  0  0
    6.5323   -1.9239    0.0000 H   0  0  0  0  0  0  0  0  0  0  0  0
    7.3322    2.2331    0.0000 N   0  0  0  0  0  0  0  0  0  0  0  0
    8.9322    2.2330    0.0000 C   0  0  0  0  0  0  0  0  0  0  0  0
   10.5323    2.2331    0.0000 H   0  0  0  0  0  0  0  0  0  0  0  0
    9.7324    3.6187    0.0000 H   0  0  0  0  0  0  0  0  0  0  0  0
    9.7324    0.8474    0.0000 H   0  0  0  0  0  0  0  0  0  0  0  0
    6.5323    3.6187    0.0000 H   0  0  0  0  0  0  0  0  0  0  0  0
  1  2  2  0  0  0  0
  2  3  1  0  0  0  0
  3  4  1  0  0  0  0
  4  5  4  0  0  0  0
  5  6  1  0  0  0  0
  6  7  1  0  0  0  0
  7  8  1  0  0  0  0
  8  9  1  0  0  0  0
  8 10  1  0  0  0  0
  8 11  1  0  0  0  0
  7 12  1  0  0  0  0
 12 13  1  0  0  0  0
 12 14  1  0  0  0  0
 12 15  1  0  0  0  0
  7 16  1  0  0  0  0
 16 17  1  0  0  0  0
 16 18  1  0  0  0  0
 16 19  1  0  0  0  0
 19  5  4  0  0  0  0
 19 20  4  0  0  0  0
 20 21  1  0  0  0  0
 20 22  4  0  0  0  0
 22 23  1  0  0  0  0
 22 24  4  0  0  0  0
 24  4  4  0  0  0  0
 24 25  1  0  0  0  0
  2 26  1  0  0  0  0
 26 27  1  0  0  0  0
 27 28  1  0  0  0  0
 27 29  1  0  0  0  0
 27 30  1  0  0  0  0
 26 31  1  0  0  0  0
M  END
> <CAS>
1563-66-2

> <NAME>
CARBOFURAN

> <preferred_name>
Carbofuran

> <iupac>
2,2-dimethyl-2,3-dihydro-1-benzofuran-7-yl methylcarbamate

> <SMILES>
CC1(C)Cc2cccc(OC(=O)NC)c2O1

> <Canonical_QSARr>
CC1(C)Cc2cccc(OC(=O)NC)c2O1

> <InChI_Code_QSARr>
InChI=1S/C12H15NO3/c1-12(2)7-8-5-4-6-9(10(8)16-12)15-11(14)13-3/h4-6H,7H2,1-3H3,(H,13,14)

> <InChI Key_QSARr>
DUEPRVBVGDRKAG-UHFFFAOYSA-N

> <Salt_Solvent>
?

> <WS Temperature>
25

> <WS Reference>
SHAROM,MS ET AL. (1980A)

> <dsstox_substance_id>
DTXSID9020249

> <LogMolar>
-2.8398

$$$$
1569-01-3
  -INDIGO-01081615412D

 22 21  0  0  0  0  0  0  0  0999 V2000
    1.3857    0.8000    0.0000 C   0  0  0  0  0  0  0  0  0  0  0  0
    2.7712    1.6000    0.0000 O   0  0  0  0  0  0  0  0  0  0  0  0
    4.1569    0.8000    0.0000 C   0  0  0  0  0  0  0  0  0  0  0  0
    5.5425   -0.0000    0.0000 C   0  0  0  0  0  0  0  0  0  0  0  0
    6.9282   -0.8000    0.0000 C   0  0  0  0  0  0  0  0  0  0  0  0
    8.3138   -1.6000    0.0000 H   0  0  0  0  0  0  0  0  0  0  0  0
    8.3138   -0.0000    0.0000 H   0  0  0  0  0  0  0  0  0  0  0  0
    6.9282   -2.4000    0.0000 H   0  0  0  0  0  0  0  0  0  0  0  0
    6.3426    1.3856    0.0000 H   0  0  0  0  0  0  0  0  0  0  0  0
    4.7426   -1.3856    0.0000 H   0  0  0  0  0  0  0  0  0  0  0  0
    4.9569    2.1856    0.0000 H   0  0  0  0  0  0  0  0  0  0  0  0
    3.3570   -0.5856    0.0000 H   0  0  0  0  0  0  0  0  0  0  0  0
    0.0000   -0.0000    0.0000 C   0  0  0  0  0  0  0  0  0  0  0  0
   -0.8000    1.3856    0.0000 O   0  0  0  0  0  0  0  0  0  0  0  0
   -2.4000    1.3856    0.0000 H   0  0  0  0  0  0  0  0  0  0  0  0
   -1.3856   -0.8000    0.0000 C   0  0  0  0  0  0  0  0  0  0  0  0
   -2.7713   -1.6000    0.0000 H   0  0  0  0  0  0  0  0  0  0  0  0
   -1.3856   -2.4000    0.0000 H   0  0  0  0  0  0  0  0  0  0  0  0
   -2.7713   -0.0000    0.0000 H   0  0  0  0  0  0  0  0  0  0  0  0
    0.7999   -1.3856    0.0000 H   0  0  0  0  0  0  0  0  0  0  0  0
    2.1856   -0.5856    0.0000 H   0  0  0  0  0  0  0  0  0  0  0  0
    0.5856    2.1856    0.0000 H   0  0  0  0  0  0  0  0  0  0  0  0
  1  2  1  0  0  0  0
  2  3  1  0  0  0  0
  3  4  1  0  0  0  0
  4  5  1  0  0  0  0
  5  6  1  0  0  0  0
  5  7  1  0  0  0  0
  5  8  1  0  0  0  0
  4  9  1  0  0  0  0
  4 10  1  0  0  0  0
  3 11  1  0  0  0  0
  3 12  1  0  0  0  0
  1 13  1  0  0  0  0
 13 14  1  0  0  0  0
 14 15  1  0  0  0  0
 13 16  1  0  0  0  0
 16 17  1  0  0  0  0
 16 18  1  0  0  0  0
 16 19  1  0  0  0  0
 13 20  1  0  0  0  0
  1 21  1  0  0  0  0
  1 22  1  0  0  0  0
M  END
> <CAS>
1569-01-3

> <NAME>
1-PROPOXY-2-PROPANOL

> <preferred_name>
1-Propoxy-2-propanol

> <iupac>
1-propoxypropan-2-ol

> <SMILES>
CCCOCC(C)O

> <Canonical_QSARr>
CCCOCC(C)O

> <InChI_Code_QSARr>
InChI=1S/C6H14O2/c1-3-4-8-5-6(2)7/h6-7H,3-5H2,1-2H3

> <InChI Key_QSARr>
FENFUOGYJVOCRY-UHFFFAOYSA-N

> <Salt_Solvent>
?

> <WS Temperature>
25

> <WS Reference>
BROWN,ES ET AL. (1980)

> <dsstox_substance_id>
DTXSID5029217

> <LogMolar>
0.9275

$$$$
1582-09-8
  -INDIGO-01081615412D

 39 39  0  0  0  0  0  0  0  0999 V2000
   -0.6187    3.5086    0.0000 O   0  0  0  0  0  0  0  0  0  0  0  0
   -2.1222    2.9614    0.0000 N   0  0  0  0  0  0  0  0  0  0  0  0
   -3.3478    3.9898    0.0000 O   0  0  0  0  0  0  0  0  0  0  0  0
   -2.4000    1.3856    0.0000 C   0  0  0  0  0  0  0  0  0  0  0  0
   -4.0000    1.3856    0.0000 C   0  0  0  0  0  0  0  0  0  0  0  0
   -4.8000    2.7712    0.0000 H   0  0  0  0  0  0  0  0  0  0  0  0
   -4.8000   -0.0001    0.0000 C   0  0  0  0  0  0  0  0  0  0  0  0
   -6.4000   -0.0001    0.0000 C   0  0  0  0  0  0  0  0  0  0  0  0
   -8.0000   -0.0001    0.0000 F   0  0  0  0  0  0  0  0  0  0  0  0
   -7.2000    1.3856    0.0000 F   0  0  0  0  0  0  0  0  0  0  0  0
   -7.2000   -1.3856    0.0000 F   0  0  0  0  0  0  0  0  0  0  0  0
   -4.0000   -1.3856    0.0000 C   0  0  0  0  0  0  0  0  0  0  0  0
   -4.8000   -2.7712    0.0000 H   0  0  0  0  0  0  0  0  0  0  0  0
   -2.4000   -1.3856    0.0000 C   0  0  0  0  0  0  0  0  0  0  0  0
   -1.8527   -2.8891    0.0000 N   0  0  0  0  0  0  0  0  0  0  0  0
   -2.8812   -4.1148    0.0000 O   0  0  0  0  0  0  0  0  0  0  0  0
   -0.2770   -3.1670    0.0000 O   0  0  0  0  0  0  0  0  0  0  0  0
   -1.6000   -0.0001    0.0000 C   0  0  0  0  0  0  0  0  0  0  0  0
    0.0000   -0.0001    0.0000 N   0  0  0  0  0  0  0  0  0  0  0  0
    0.8000   -1.3856    0.0000 C   0  0  0  0  0  0  0  0  0  0  0  0
    1.6000   -2.7712    0.0000 C   0  0  0  0  0  0  0  0  0  0  0  0
    2.4000   -4.1569    0.0000 C   0  0  0  0  0  0  0  0  0  0  0  0
    3.2000   -5.5426    0.0000 H   0  0  0  0  0  0  0  0  0  0  0  0
    1.6000   -5.5426    0.0000 H   0  0  0  0  0  0  0  0  0  0  0  0
    4.0000   -4.1569    0.0000 H   0  0  0  0  0  0  0  0  0  0  0  0
    0.3743   -3.7997    0.0000 H   0  0  0  0  0  0  0  0  0  0  0  0
    2.9856   -1.9713    0.0000 H   0  0  0  0  0  0  0  0  0  0  0  0
   -0.7035   -1.9329    0.0000 H   0  0  0  0  0  0  0  0  0  0  0  0
    2.1856   -0.5857    0.0000 H   0  0  0  0  0  0  0  0  0  0  0  0
    0.8000    1.3856    0.0000 C   0  0  0  0  0  0  0  0  0  0  0  0
    1.6000    2.7712    0.0000 C   0  0  0  0  0  0  0  0  0  0  0  0
    2.4000    4.1569    0.0000 C   0  0  0  0  0  0  0  0  0  0  0  0
    3.2000    5.5426    0.0000 H   0  0  0  0  0  0  0  0  0  0  0  0
    1.6000    5.5426    0.0000 H   0  0  0  0  0  0  0  0  0  0  0  0
    4.0000    4.1569    0.0000 H   0  0  0  0  0  0  0  0  0  0  0  0
    0.3743    3.7997    0.0000 H   0  0  0  0  0  0  0  0  0  0  0  0
    2.9856    1.9713    0.0000 H   0  0  0  0  0  0  0  0  0  0  0  0
   -0.5856    2.1856    0.0000 H   0  0  0  0  0  0  0  0  0  0  0  0
    2.1856    0.5857    0.0000 H   0  0  0  0  0  0  0  0  0  0  0  0
  1  2  2  0  0  0  0
  2  3  1  0  0  0  0
  2  4  1  0  0  0  0
  4  5  4  0  0  0  0
  5  6  1  0  0  0  0
  5  7  4  0  0  0  0
  7  8  1  0  0  0  0
  8  9  1  0  0  0  0
  8 10  1  0  0  0  0
  8 11  1  0  0  0  0
  7 12  4  0  0  0  0
 12 13  1  0  0  0  0
 12 14  4  0  0  0  0
 14 15  1  0  0  0  0
 15 16  1  0  0  0  0
 15 17  2  0  0  0  0
 14 18  4  0  0  0  0
 18  4  4  0  0  0  0
 18 19  1  0  0  0  0
 19 20  1  0  0  0  0
 20 21  1  0  0  0  0
 21 22  1  0  0  0  0
 22 23  1  0  0  0  0
 22 24  1  0  0  0  0
 22 25  1  0  0  0  0
 21 26  1  0  0  0  0
 21 27  1  0  0  0  0
 20 28  1  0  0  0  0
 20 29  1  0  0  0  0
 19 30  1  0  0  0  0
 30 31  1  0  0  0  0
 31 32  1  0  0  0  0
 32 33  1  0  0  0  0
 32 34  1  0  0  0  0
 32 35  1  0  0  0  0
 31 36  1  0  0  0  0
 31 37  1  0  0  0  0
 30 38  1  0  0  0  0
 30 39  1  0  0  0  0
M  CHG  4   2   1   3  -1  15   1  16  -1
M  END
> <CAS>
1582-09-8

> <NAME>
TRIFLURALIN

> <preferred_name>
Trifluralin

> <iupac>
2,6-dinitro-N,N-dipropyl-4-(trifluoromethyl)aniline

> <SMILES>
CCCN(CCC)c1c(cc(cc1[N+]([O-])=O)C(F)(F)F)[N+]([O-])=O

> <Canonical_QSARr>
CCCN(CCC)c1c(cc(cc1[N+]([O-])=O)C(F)(F)F)[N+]([O-])=O

> <InChI_Code_QSARr>
InChI=1S/C13H16F3N3O4/c1-3-5-17(6-4-2)12-10(18(20)21)7-9(13(14,15)16)8-11(12)19(22)23/h7-8H,3-6H2,1-2H3

> <InChI Key_QSARr>
ZSDSQXJSNMTJDA-UHFFFAOYSA-N

> <Salt_Solvent>
?

> <WS Temperature>
25

> <WS Reference>
TOMLIN,C (1997); pH 5

> <dsstox_substance_id>
DTXSID4021395

> <LogMolar>
-6.1543

$$$$
1590-22-3
  -INDIGO-01081615412D

 29 30  0  0  0  0  0  0  0  0999 V2000
    1.3857    2.4000    0.0000 O   0  0  0  0  0  0  0  0  0  0  0  0
    1.3857    0.8000    0.0000 C   0  0  0  0  0  0  0  0  0  0  0  0
    0.0000   -0.0000    0.0000 C   0  0  0  0  0  0  0  0  0  0  0  0
   -1.3857   -0.8000    0.0000 C   0  0  0  0  0  0  0  0  0  0  0  0
   -2.7714   -1.6000    0.0000 C   0  0  0  0  0  0  0  0  0  0  0  0
   -2.7714   -3.2000    0.0000 O   0  0  0  0  0  0  0  0  0  0  0  0
   -4.1569   -0.8000    0.0000 O   0  0  0  0  0  0  0  0  0  0  0  0
   -5.5426   -1.6000    0.0000 H   0  0  0  0  0  0  0  0  0  0  0  0
   -2.1858    0.5856    0.0000 H   0  0  0  0  0  0  0  0  0  0  0  0
   -0.5856   -2.1856    0.0000 H   0  0  0  0  0  0  0  0  0  0  0  0
   -0.8000    1.3856    0.0000 H   0  0  0  0  0  0  0  0  0  0  0  0
    0.8001   -1.3856    0.0000 H   0  0  0  0  0  0  0  0  0  0  0  0
    2.7712   -0.0000    0.0000 C   0  0  0  0  0  0  0  0  0  0  0  0
    2.7712   -1.6000    0.0000 C   0  0  0  0  0  0  0  0  0  0  0  0
    1.3857   -2.4000    0.0000 H   0  0  0  0  0  0  0  0  0  0  0  0
    4.1569   -2.4000    0.0000 C   0  0  0  0  0  0  0  0  0  0  0  0
    4.1569   -4.0000    0.0000 H   0  0  0  0  0  0  0  0  0  0  0  0
    5.5426   -1.6000    0.0000 C   0  0  0  0  0  0  0  0  0  0  0  0
    6.9283   -2.4000    0.0000 C   0  0  0  0  0  0  0  0  0  0  0  0
    8.3138   -1.6000    0.0000 C   0  0  0  0  0  0  0  0  0  0  0  0
    8.3138   -0.0000    0.0000 C   0  0  0  0  0  0  0  0  0  0  0  0
    6.9283    0.8000    0.0000 C   0  0  0  0  0  0  0  0  0  0  0  0
    6.9283    2.4000    0.0000 H   0  0  0  0  0  0  0  0  0  0  0  0
    5.5426   -0.0000    0.0000 C   0  0  0  0  0  0  0  0  0  0  0  0
    4.1569    0.8000    0.0000 C   0  0  0  0  0  0  0  0  0  0  0  0
    4.1569    2.4000    0.0000 H   0  0  0  0  0  0  0  0  0  0  0  0
    9.6995    0.8000    0.0000 H   0  0  0  0  0  0  0  0  0  0  0  0
    9.6995   -2.4000    0.0000 H   0  0  0  0  0  0  0  0  0  0  0  0
    6.9283   -4.0000    0.0000 H   0  0  0  0  0  0  0  0  0  0  0  0
  1  2  2  0  0  0  0
  2  3  1  0  0  0  0
  3  4  1  0  0  0  0
  4  5  1  0  0  0  0
  5  6  2  0  0  0  0
  5  7  1  0  0  0  0
  7  8  1  0  0  0  0
  4  9  1  0  0  0  0
  4 10  1  0  0  0  0
  3 11  1  0  0  0  0
  3 12  1  0  0  0  0
  2 13  1  0  0  0  0
 13 14  4  0  0  0  0
 14 15  1  0  0  0  0
 14 16  4  0  0  0  0
 16 17  1  0  0  0  0
 16 18  4  0  0  0  0
 18 19  4  0  0  0  0
 19 20  4  0  0  0  0
 20 21  4  0  0  0  0
 21 22  4  0  0  0  0
 22 23  1  0  0  0  0
 22 24  4  0  0  0  0
 24 18  4  0  0  0  0
 24 25  4  0  0  0  0
 25 13  4  0  0  0  0
 25 26  1  0  0  0  0
 21 27  1  0  0  0  0
 20 28  1  0  0  0  0
 19 29  1  0  0  0  0
M  END
> <CAS>
1590-22-3

> <NAME>
2-Naphthalenebutanoic acid, .gamma.-oxo-

> <preferred_name>
4-(2-Naphthyl)-4-oxobutanoic acid

> <iupac>
C14H12O3

> <SMILES>
OC(=O)CCC(=O)c1cc2ccccc2cc1

> <Canonical_QSARr>
OC(=O)CCC(=O)c1cc2ccccc2cc1

> <InChI_Code_QSARr>
InChI=1S/C14H12O3/c15-13(7-8-14(16)17)12-6-5-10-3-1-2-4-11(10)9-12/h1-6,9H,7-8H2,(H,16,17)

> <InChI Key_QSARr>
GZKLCZIMSAHQDR-UHFFFAOYSA-N

> <Salt_Solvent>
?

> <WS Temperature>
25

> <WS Reference>
BEILSTEIN

> <dsstox_substance_id>
DTXSID90277380

> <LogMolar>
-3.8533

$$$$
1610-18-0
  -INDIGO-01081615412D

 35 35  0  0  0  0  0  0  0  0999 V2000
   -5.5426   -0.0000    0.0000 C   0  0  0  0  0  0  0  0  0  0  0  0
   -6.9281    0.8000    0.0000 N   0  0  0  0  0  0  0  0  0  0  0  0
   -8.3138   -0.0000    0.0000 C   0  0  0  0  0  0  0  0  0  0  0  0
   -9.6994   -0.8000    0.0000 C   0  0  0  0  0  0  0  0  0  0  0  0
  -11.0851   -1.6000    0.0000 H   0  0  0  0  0  0  0  0  0  0  0  0
  -11.0851   -0.0000    0.0000 H   0  0  0  0  0  0  0  0  0  0  0  0
   -9.6994   -2.4000    0.0000 H   0  0  0  0  0  0  0  0  0  0  0  0
   -9.1139    1.3857    0.0000 C   0  0  0  0  0  0  0  0  0  0  0  0
   -9.9138    2.7713    0.0000 H   0  0  0  0  0  0  0  0  0  0  0  0
  -10.7138    1.3857    0.0000 H   0  0  0  0  0  0  0  0  0  0  0  0
   -8.3138    2.7713    0.0000 H   0  0  0  0  0  0  0  0  0  0  0  0
   -7.5138   -1.3856    0.0000 H   0  0  0  0  0  0  0  0  0  0  0  0
   -6.9283    2.4000    0.0000 H   0  0  0  0  0  0  0  0  0  0  0  0
   -5.5426   -1.6000    0.0000 N   0  0  0  1  0  0  0  0  0  0  0  0
   -4.1568   -2.4000    0.0000 C   0  0  0  0  0  0  0  0  0  0  0  0
   -4.1568   -3.9999    0.0000 O   0  0  0  0  0  0  0  0  0  0  0  0
   -2.7713   -4.8000    0.0000 C   0  0  0  0  0  0  0  0  0  0  0  0
   -2.7713   -6.4000    0.0000 H   0  0  0  0  0  0  0  0  0  0  0  0
   -1.3855   -5.5999    0.0000 H   0  0  0  0  0  0  0  0  0  0  0  0
   -4.1570   -5.5999    0.0000 H   0  0  0  0  0  0  0  0  0  0  0  0
   -2.7713   -1.6000    0.0000 N   0  0  0  1  0  0  0  0  0  0  0  0
   -2.7713   -0.0000    0.0000 C   0  0  0  0  0  0  0  0  0  0  0  0
   -1.3855    0.8000    0.0000 N   0  0  0  0  0  0  0  0  0  0  0  0
    0.0000   -0.0000    0.0000 C   0  0  0  0  0  0  0  0  0  0  0  0
    1.3857   -0.8000    0.0000 C   0  0  0  0  0  0  0  0  0  0  0  0
    2.7713   -1.6000    0.0000 H   0  0  0  0  0  0  0  0  0  0  0  0
    2.7713   -0.0000    0.0000 H   0  0  0  0  0  0  0  0  0  0  0  0
    1.3857   -2.4000    0.0000 H   0  0  0  0  0  0  0  0  0  0  0  0
    0.8001    1.3857    0.0000 C   0  0  0  0  0  0  0  0  0  0  0  0
    1.5999    2.7713    0.0000 H   0  0  0  0  0  0  0  0  0  0  0  0
    2.4000    1.3857    0.0000 H   0  0  0  0  0  0  0  0  0  0  0  0
    0.0000    2.7713    0.0000 H   0  0  0  0  0  0  0  0  0  0  0  0
   -0.8001   -1.3856    0.0000 H   0  0  0  0  0  0  0  0  0  0  0  0
   -1.3855    2.4000    0.0000 H   0  0  0  0  0  0  0  0  0  0  0  0
   -4.1568    0.8000    0.0000 N   0  0  0  1  0  0  0  0  0  0  0  0
  1  2  1  0  0  0  0
  2  3  1  0  0  0  0
  3  4  1  0  0  0  0
  4  5  1  0  0  0  0
  4  6  1  0  0  0  0
  4  7  1  0  0  0  0
  3  8  1  0  0  0  0
  8  9  1  0  0  0  0
  8 10  1  0  0  0  0
  8 11  1  0  0  0  0
  3 12  1  0  0  0  0
  2 13  1  0  0  0  0
  1 14  4  0  0  0  0
 14 15  4  0  0  0  0
 15 16  1  0  0  0  0
 16 17  1  0  0  0  0
 17 18  1  0  0  0  0
 17 19  1  0  0  0  0
 17 20  1  0  0  0  0
 15 21  4  0  0  0  0
 21 22  4  0  0  0  0
 22 23  1  0  0  0  0
 23 24  1  0  0  0  0
 24 25  1  0  0  0  0
 25 26  1  0  0  0  0
 25 27  1  0  0  0  0
 25 28  1  0  0  0  0
 24 29  1  0  0  0  0
 29 30  1  0  0  0  0
 29 31  1  0  0  0  0
 29 32  1  0  0  0  0
 24 33  1  0  0  0  0
 23 34  1  0  0  0  0
 22 35  4  0  0  0  0
 35  1  4  0  0  0  0
M  END
> <CAS>
1610-18-0

> <NAME>
PROMETON

> <preferred_name>
Prometon

> <iupac>
6-methoxy-N,N'-di(propan-2-yl)-1,3,5-triazine-2,4-diamine

> <SMILES>
COc1[n]c(NC(C)C)[n]c(NC(C)C)[n]1

> <Canonical_QSARr>
COc1[n]c(NC(C)C)[n]c(NC(C)C)[n]1

> <InChI_Code_QSARr>
InChI=1S/C10H19N5O/c1-6(2)11-8-13-9(12-7(3)4)15-10(14-8)16-5/h6-7H,1-5H3,(H2,11,12,13,14,15)

> <InChI Key_QSARr>
ISEUFVQQFVOBCY-UHFFFAOYSA-N

> <Salt_Solvent>
?

> <WS Temperature>
25

> <WS Reference>
TOMLIN,C (1994)

> <dsstox_substance_id>
DTXSID6022341

> <LogMolar>
-2.4777

$$$$
1634-04-4
  -INDIGO-01081615412D

 18 17  0  0  0  0  0  0  0  0999 V2000
   -1.3856   -0.8000    0.0000 C   0  0  0  0  0  0  0  0  0  0  0  0
    0.0001    0.0000    0.0000 C   0  0  0  0  0  0  0  0  0  0  0  0
    1.3856    0.8000    0.0000 C   0  0  0  0  0  0  0  0  0  0  0  0
    2.7713    1.6000    0.0000 H   0  0  0  0  0  0  0  0  0  0  0  0
    1.3856    2.4000    0.0000 H   0  0  0  0  0  0  0  0  0  0  0  0
    2.7713    0.0000    0.0000 H   0  0  0  0  0  0  0  0  0  0  0  0
    0.8000   -1.3856    0.0000 C   0  0  0  0  0  0  0  0  0  0  0  0
    1.6000   -2.7713    0.0000 H   0  0  0  0  0  0  0  0  0  0  0  0
    0.0001   -2.7713    0.0000 H   0  0  0  0  0  0  0  0  0  0  0  0
    2.4000   -1.3856    0.0000 H   0  0  0  0  0  0  0  0  0  0  0  0
   -0.8000    1.3856    0.0000 O   0  0  0  0  0  0  0  0  0  0  0  0
   -2.4000    1.3856    0.0000 C   0  0  0  0  0  0  0  0  0  0  0  0
   -3.2000    2.7713    0.0000 H   0  0  0  0  0  0  0  0  0  0  0  0
   -4.0000    1.3856    0.0000 H   0  0  0  0  0  0  0  0  0  0  0  0
   -1.6000    2.7713    0.0000 H   0  0  0  0  0  0  0  0  0  0  0  0
   -2.7713   -1.6000    0.0000 H   0  0  0  0  0  0  0  0  0  0  0  0
   -2.7713    0.0000    0.0000 H   0  0  0  0  0  0  0  0  0  0  0  0
   -1.3856   -2.4000    0.0000 H   0  0  0  0  0  0  0  0  0  0  0  0
  1  2  1  0  0  0  0
  2  3  1  0  0  0  0
  3  4  1  0  0  0  0
  3  5  1  0  0  0  0
  3  6  1  0  0  0  0
  2  7  1  0  0  0  0
  7  8  1  0  0  0  0
  7  9  1  0  0  0  0
  7 10  1  0  0  0  0
  2 11  1  0  0  0  0
 11 12  1  0  0  0  0
 12 13  1  0  0  0  0
 12 14  1  0  0  0  0
 12 15  1  0  0  0  0
  1 16  1  0  0  0  0
  1 17  1  0  0  0  0
  1 18  1  0  0  0  0
M  END
> <CAS>
1634-04-4

> <NAME>
METHYL T-BUTYL ETHER

> <preferred_name>
Methyl tert-butyl ether

> <iupac>
tert-butyl methyl ether

> <SMILES>
COC(C)(C)C

> <Canonical_QSARr>
COC(C)(C)C

> <InChI_Code_QSARr>
InChI=1S/C5H12O/c1-5(2,3)6-4/h1-4H3

> <InChI Key_QSARr>
BZLVMXJERCGZMT-UHFFFAOYSA-N

> <Salt_Solvent>
?

> <WS Temperature>
25

> <WS Reference>
BENNETT,GM & PHILIP,WG (1928)

> <dsstox_substance_id>
DTXSID3020833

> <LogMolar>
-0.2377

$$$$
1646-88-4
  -INDIGO-01081615412D

 28 27  0  0  0  0  0  0  0  0999 V2000
   -1.3856   -0.8000    0.0000 C   0  0  0  0  0  0  0  0  0  0  0  0
   -2.7713    0.0000    0.0000 N   0  0  0  0  0  0  0  0  0  0  0  0
   -4.1569   -0.8000    0.0000 O   0  0  0  0  0  0  0  0  0  0  0  0
   -5.5426    0.0000    0.0000 C   0  0  0  0  0  0  0  0  0  0  0  0
   -6.9283   -0.8000    0.0000 N   0  0  0  0  0  0  0  0  0  0  0  0
   -8.3138    0.0000    0.0000 C   0  0  0  0  0  0  0  0  0  0  0  0
   -9.6995    0.8000    0.0000 H   0  0  0  0  0  0  0  0  0  0  0  0
   -9.6995   -0.8000    0.0000 H   0  0  0  0  0  0  0  0  0  0  0  0
   -8.3138    1.6000    0.0000 H   0  0  0  0  0  0  0  0  0  0  0  0
   -6.9283   -2.4000    0.0000 H   0  0  0  0  0  0  0  0  0  0  0  0
   -5.5426    1.6000    0.0000 O   0  0  0  0  0  0  0  0  0  0  0  0
    0.0001    0.0000    0.0000 C   0  0  0  0  0  0  0  0  0  0  0  0
    0.8000   -1.3856    0.0000 S   0  0  0  0  0  0  0  0  0  0  0  0
    1.5999   -2.7713    0.0000 C   0  0  0  0  0  0  0  0  0  0  0  0
    2.4001   -4.1569    0.0000 H   0  0  0  0  0  0  0  0  0  0  0  0
    0.8000   -4.1569    0.0000 H   0  0  0  0  0  0  0  0  0  0  0  0
    3.2000   -2.7713    0.0000 H   0  0  0  0  0  0  0  0  0  0  0  0
   -0.5857   -2.1856    0.0000 O   0  0  0  0  0  0  0  0  0  0  0  0
    2.3034   -0.8384    0.0000 O   0  0  0  0  0  0  0  0  0  0  0  0
   -0.8001    1.3856    0.0000 C   0  0  0  0  0  0  0  0  0  0  0  0
   -1.6000    2.7713    0.0000 H   0  0  0  0  0  0  0  0  0  0  0  0
   -2.3999    1.3856    0.0000 H   0  0  0  0  0  0  0  0  0  0  0  0
    0.0001    2.7713    0.0000 H   0  0  0  0  0  0  0  0  0  0  0  0
    1.3856    0.8000    0.0000 C   0  0  0  0  0  0  0  0  0  0  0  0
    2.7713    1.6000    0.0000 H   0  0  0  0  0  0  0  0  0  0  0  0
    1.3856    2.4000    0.0000 H   0  0  0  0  0  0  0  0  0  0  0  0
    2.8892    0.2528    0.0000 H   0  0  0  0  0  0  0  0  0  0  0  0
   -1.6636   -2.3757    0.0000 H   0  0  0  0  0  0  0  0  0  0  0  0
  1  2  2  0  0  0  0
  2  3  1  0  0  0  0
  3  4  1  0  0  0  0
  4  5  1  0  0  0  0
  5  6  1  0  0  0  0
  6  7  1  0  0  0  0
  6  8  1  0  0  0  0
  6  9  1  0  0  0  0
  5 10  1  0  0  0  0
  4 11  2  0  0  0  0
  1 12  1  0  0  0  0
 12 13  1  0  0  0  0
 13 14  1  0  0  0  0
 14 15  1  0  0  0  0
 14 16  1  0  0  0  0
 14 17  1  0  0  0  0
 13 18  2  0  0  0  0
 13 19  2  0  0  0  0
 12 20  1  0  0  0  0
 20 21  1  0  0  0  0
 20 22  1  0  0  0  0
 20 23  1  0  0  0  0
 12 24  1  0  0  0  0
 24 25  1  0  0  0  0
 24 26  1  0  0  0  0
 24 27  1  0  0  0  0
  1 28  1  0  0  0  0
M  END
> <CAS>
1646-88-4

> <NAME>
ALDICARB SULFONE

> <preferred_name>
Aldoxycarb

> <iupac>
(5E)-7,7-dimethyl-4-oxa-8-thia-2,5-diazanon-5-en-3-one 8,8-dioxide

> <SMILES>
CNC(=O)O/N=C/C(C)(C)S(C)(=O)=O

> <Canonical_QSARr>
CNC(=O)ON=CC(C)(C)S(C)(=O)=O

> <InChI_Code_QSARr>
InChI=1S/C7H14N2O4S/c1-7(2,14(4,11)12)5-9-13-6(10)8-3/h5H,1-4H3,(H,8,10)/b9-5+

> <InChI Key_QSARr>
YRRKLBAKDXSTNC-WEVVVXLNSA-N

> <Salt_Solvent>
?

> <WS Temperature>
25

> <WS Reference>
WAUCHOPE,RD ET AL. (1991A)

> <dsstox_substance_id>
DTXSID6023862

> <LogMolar>
-1.3469

$$$$
1660-93-1
  -INDIGO-01081615412D

 34 36  0  0  0  0  0  0  0  0999 V2000
    4.8000    2.7713    0.0000 N   0  0  0  1  0  0  0  0  0  0  0  0
    6.4000    2.7713    0.0000 C   0  0  0  0  0  0  0  0  0  0  0  0
    7.2001    4.1569    0.0000 H   0  0  0  0  0  0  0  0  0  0  0  0
    7.2001    1.3856    0.0000 C   0  0  0  0  0  0  0  0  0  0  0  0
    8.7999    1.3856    0.0000 C   0  0  0  0  0  0  0  0  0  0  0  0
   10.4000    1.3856    0.0000 H   0  0  0  0  0  0  0  0  0  0  0  0
    9.6000    2.7713    0.0000 H   0  0  0  0  0  0  0  0  0  0  0  0
    9.6000   -0.0000    0.0000 H   0  0  0  0  0  0  0  0  0  0  0  0
    6.4000   -0.0000    0.0000 C   0  0  0  0  0  0  0  0  0  0  0  0
    7.2001   -1.3856    0.0000 C   0  0  0  0  0  0  0  0  0  0  0  0
    8.0001   -2.7713    0.0000 H   0  0  0  0  0  0  0  0  0  0  0  0
    8.7999   -1.3856    0.0000 H   0  0  0  0  0  0  0  0  0  0  0  0
    6.4000   -2.7713    0.0000 H   0  0  0  0  0  0  0  0  0  0  0  0
    4.8000   -0.0000    0.0000 C   0  0  0  0  0  0  0  0  0  0  0  0
    3.9999   -1.3856    0.0000 C   0  0  0  0  0  0  0  0  0  0  0  0
    2.4001   -1.3856    0.0000 C   0  0  0  0  0  0  0  0  0  0  0  0
    1.6000   -0.0000    0.0000 C   0  0  0  0  0  0  0  0  0  0  0  0
    2.4001    1.3856    0.0000 C   0  0  0  0  0  0  0  0  0  0  0  0
    3.9999    1.3856    0.0000 C   0  0  0  0  0  0  0  0  0  0  0  0
    1.6000    2.7713    0.0000 N   0  0  0  1  0  0  0  0  0  0  0  0
   -0.0000    2.7713    0.0000 C   0  0  0  0  0  0  0  0  0  0  0  0
   -0.8001    4.1569    0.0000 H   0  0  0  0  0  0  0  0  0  0  0  0
   -0.8001    1.3856    0.0000 C   0  0  0  0  0  0  0  0  0  0  0  0
   -2.3999    1.3856    0.0000 C   0  0  0  0  0  0  0  0  0  0  0  0
   -4.0000    1.3856    0.0000 H   0  0  0  0  0  0  0  0  0  0  0  0
   -3.2000    2.7713    0.0000 H   0  0  0  0  0  0  0  0  0  0  0  0
   -3.2000   -0.0000    0.0000 H   0  0  0  0  0  0  0  0  0  0  0  0
   -0.0000   -0.0000    0.0000 C   0  0  0  0  0  0  0  0  0  0  0  0
   -0.8001   -1.3856    0.0000 C   0  0  0  0  0  0  0  0  0  0  0  0
   -1.6001   -2.7713    0.0000 H   0  0  0  0  0  0  0  0  0  0  0  0
   -2.3999   -1.3856    0.0000 H   0  0  0  0  0  0  0  0  0  0  0  0
   -0.0000   -2.7713    0.0000 H   0  0  0  0  0  0  0  0  0  0  0  0
    1.6000   -2.7713    0.0000 H   0  0  0  0  0  0  0  0  0  0  0  0
    4.8000   -2.7713    0.0000 H   0  0  0  0  0  0  0  0  0  0  0  0
  1  2  4  0  0  0  0
  2  3  1  0  0  0  0
  2  4  4  0  0  0  0
  4  5  1  0  0  0  0
  5  6  1  0  0  0  0
  5  7  1  0  0  0  0
  5  8  1  0  0  0  0
  4  9  4  0  0  0  0
  9 10  1  0  0  0  0
 10 11  1  0  0  0  0
 10 12  1  0  0  0  0
 10 13  1  0  0  0  0
  9 14  4  0  0  0  0
 14 15  4  0  0  0  0
 15 16  4  0  0  0  0
 16 17  4  0  0  0  0
 17 18  4  0  0  0  0
 18 19  4  0  0  0  0
 19  1  4  0  0  0  0
 19 14  4  0  0  0  0
 18 20  4  0  0  0  0
 20 21  4  0  0  0  0
 21 22  1  0  0  0  0
 21 23  4  0  0  0  0
 23 24  1  0  0  0  0
 24 25  1  0  0  0  0
 24 26  1  0  0  0  0
 24 27  1  0  0  0  0
 23 28  4  0  0  0  0
 28 17  4  0  0  0  0
 28 29  1  0  0  0  0
 29 30  1  0  0  0  0
 29 31  1  0  0  0  0
 29 32  1  0  0  0  0
 16 33  1  0  0  0  0
 15 34  1  0  0  0  0
M  END
> <CAS>
1660-93-1

> <NAME>
1,10-Phenanthroline, 3,4,7,8-tetramethyl-

> <preferred_name>
1,10-Phenanthroline, 3,4,7,8-tetramethyl-

> <iupac>
3,4,7,8-Tetramethyl-1,10-phenanthroline

> <SMILES>
Cc1c[n]c2c3[n]cc(C)c(C)c3ccc2c1C

> <Canonical_QSARr>
Cc1c[n]c2c3[n]cc(C)c(C)c3ccc2c1C

> <InChI_Code_QSARr>
InChI=1S/C16H16N2/c1-9-7-17-15-13(11(9)3)5-6-14-12(4)10(2)8-18-16(14)15/h5-8H,1-4H3

> <InChI Key_QSARr>
NPAXPTHCUCUHPT-UHFFFAOYSA-N

> <Salt_Solvent>
?

> <WS Temperature>
25

> <WS Reference>
YALKOWSKY,SH & DANNENFELSER,RM (1992)

> <dsstox_substance_id>
DTXSID2061856

> <LogMolar>
-5.19445

$$$$
1689-09-4
  -INDIGO-01081615412D

 22 23  0  0  0  0  0  0  0  0999 V2000
    0.1672   -1.5912    0.0000 O   0  0  0  0  0  0  0  0  0  0  0  0
   -1.2945   -2.2420    0.0000 C   0  0  0  0  0  0  0  0  0  0  0  0
   -1.6271   -3.8071    0.0000 O   0  0  0  0  0  0  0  0  0  0  0  0
   -2.3650   -1.0530    0.0000 C   0  0  0  0  0  0  0  0  0  0  0  0
   -3.9650   -1.0530    0.0000 C   0  0  0  0  0  0  0  0  0  0  0  0
   -4.7651    0.3326    0.0000 C   0  0  0  0  0  0  0  0  0  0  0  0
   -3.9650    1.7183    0.0000 C   0  0  0  0  0  0  0  0  0  0  0  0
   -2.3650    1.7183    0.0000 C   0  0  0  0  0  0  0  0  0  0  0  0
   -2.0872    3.2940    0.0000 H   0  0  0  0  0  0  0  0  0  0  0  0
   -1.5651    0.3326    0.0000 C   0  0  0  0  0  0  0  0  0  0  0  0
   -0.0000   -0.0000    0.0000 C   0  0  0  0  0  0  0  0  0  0  0  0
    1.6001   -0.0000    0.0000 C   0  0  0  0  0  0  0  0  0  0  0  0
    3.2000   -0.0000    0.0000 H   0  0  0  0  0  0  0  0  0  0  0  0
    2.4000    1.3856    0.0000 H   0  0  0  0  0  0  0  0  0  0  0  0
    2.4000   -1.3856    0.0000 H   0  0  0  0  0  0  0  0  0  0  0  0
    0.1672    1.5912    0.0000 C   0  0  0  0  0  0  0  0  0  0  0  0
    0.3345    3.1825    0.0000 H   0  0  0  0  0  0  0  0  0  0  0  0
    1.6290    2.2420    0.0000 H   0  0  0  0  0  0  0  0  0  0  0  0
   -1.1272    2.5317    0.0000 H   0  0  0  0  0  0  0  0  0  0  0  0
   -4.7651    3.1039    0.0000 H   0  0  0  0  0  0  0  0  0  0  0  0
   -6.3650    0.3326    0.0000 H   0  0  0  0  0  0  0  0  0  0  0  0
   -4.7651   -2.4386    0.0000 H   0  0  0  0  0  0  0  0  0  0  0  0
  1  2  1  0  0  0  0
  2  3  2  0  0  0  0
  2  4  1  0  0  0  0
  4  5  4  0  0  0  0
  5  6  4  0  0  0  0
  6  7  4  0  0  0  0
  7  8  4  0  0  0  0
  8  9  1  0  0  0  0
  8 10  4  0  0  0  0
 10  4  4  0  0  0  0
 10 11  1  0  0  0  0
 11  1  1  0  0  0  0
 11 12  1  0  0  0  0
 12 13  1  0  0  0  0
 12 14  1  0  0  0  0
 12 15  1  0  0  0  0
 11 16  1  0  0  0  0
 16 17  1  0  0  0  0
 16 18  1  0  0  0  0
 16 19  1  0  0  0  0
  7 20  1  0  0  0  0
  6 21  1  0  0  0  0
  5 22  1  0  0  0  0
M  END
> <CAS>
1689-09-4

> <NAME>
1(3H)ISOBENZOFURANONE-3,3-DIMETHYL

> <preferred_name>
3,3-Dimethylphthalide

> <iupac>
3,3-dimethyl-2-benzofuran-1-one

> <SMILES>
CC1(C)OC(=O)c2ccccc12

> <Canonical_QSARr>
CC1(C)OC(=O)c2ccccc12

> <InChI_Code_QSARr>
InChI=1S/C10H10O2/c1-10(2)8-6-4-3-5-7(8)9(11)12-10/h3-6H,1-2H3

> <InChI Key_QSARr>
YFBZUWUJSCLVST-UHFFFAOYSA-N

> <Salt_Solvent>
?

> <WS Temperature>
25

> <WS Reference>
BEILSTEIN

> <dsstox_substance_id>
DTXSID40168618

> <LogMolar>
-1.8684

$$$$
1689-99-2
  -INDIGO-01081615412D

 37 37  0  0  0  0  0  0  0  0999 V2000
   -6.4001    0.0000    0.0000 C   0  0  0  0  0  0  0  0  0  0  0  0
   -4.8000    0.0000    0.0000 C   0  0  0  0  0  0  0  0  0  0  0  0
   -3.2001    0.0000    0.0000 C   0  0  0  0  0  0  0  0  0  0  0  0
   -1.5999    0.0000    0.0000 C   0  0  0  0  0  0  0  0  0  0  0  0
   -0.0001    0.0000    0.0000 C   0  0  0  0  0  0  0  0  0  0  0  0
    1.6001    0.0000    0.0000 C   0  0  0  0  0  0  0  0  0  0  0  0
    3.2000    0.0000    0.0000 C   0  0  0  0  0  0  0  0  0  0  0  0
    4.8001    0.0000    0.0000 C   0  0  0  0  0  0  0  0  0  0  0  0
    6.4000    0.0000    0.0000 H   0  0  0  0  0  0  0  0  0  0  0  0
    5.6001   -1.3857    0.0000 H   0  0  0  0  0  0  0  0  0  0  0  0
    5.6001    1.3857    0.0000 H   0  0  0  0  0  0  0  0  0  0  0  0
    3.2000   -1.6000    0.0000 H   0  0  0  0  0  0  0  0  0  0  0  0
    3.2000    1.6000    0.0000 H   0  0  0  0  0  0  0  0  0  0  0  0
    1.6001   -1.6000    0.0000 H   0  0  0  0  0  0  0  0  0  0  0  0
    1.6001    1.6000    0.0000 H   0  0  0  0  0  0  0  0  0  0  0  0
   -0.0001   -1.6000    0.0000 H   0  0  0  0  0  0  0  0  0  0  0  0
   -0.0001    1.6000    0.0000 H   0  0  0  0  0  0  0  0  0  0  0  0
   -1.5999   -1.6000    0.0000 H   0  0  0  0  0  0  0  0  0  0  0  0
   -1.5999    1.6000    0.0000 H   0  0  0  0  0  0  0  0  0  0  0  0
   -3.2001   -1.6000    0.0000 H   0  0  0  0  0  0  0  0  0  0  0  0
   -3.2001    1.6000    0.0000 H   0  0  0  0  0  0  0  0  0  0  0  0
   -4.8000   -1.6000    0.0000 H   0  0  0  0  0  0  0  0  0  0  0  0
   -4.8000    1.6000    0.0000 H   0  0  0  0  0  0  0  0  0  0  0  0
   -7.2001    1.3857    0.0000 O   0  0  0  0  0  0  0  0  0  0  0  0
   -8.7999    1.3857    0.0000 C   0  0  0  0  0  0  0  0  0  0  0  0
   -9.5999    2.7713    0.0000 C   0  0  0  0  0  0  0  0  0  0  0  0
   -8.7999    4.1569    0.0000 Br  0  0  0  0  0  0  0  0  0  0  0  0
  -11.2000    2.7713    0.0000 C   0  0  0  0  0  0  0  0  0  0  0  0
  -12.0000    4.1569    0.0000 H   0  0  0  0  0  0  0  0  0  0  0  0
  -12.0000    1.3857    0.0000 C   0  0  0  0  0  0  0  0  0  0  0  0
  -13.6001    1.3857    0.0000 C   0  0  0  0  0  0  0  0  0  0  0  0
  -15.2000    1.3857    0.0000 N   0  0  0  0  0  0  0  0  0  0  0  0
  -11.2000    0.0000    0.0000 C   0  0  0  0  0  0  0  0  0  0  0  0
  -12.0000   -1.3857    0.0000 H   0  0  0  0  0  0  0  0  0  0  0  0
   -9.5999    0.0000    0.0000 C   0  0  0  0  0  0  0  0  0  0  0  0
   -8.7999   -1.3857    0.0000 Br  0  0  0  0  0  0  0  0  0  0  0  0
   -7.2001   -1.3857    0.0000 O   0  0  0  0  0  0  0  0  0  0  0  0
  1  2  1  0  0  0  0
  2  3  1  0  0  0  0
  3  4  1  0  0  0  0
  4  5  1  0  0  0  0
  5  6  1  0  0  0  0
  6  7  1  0  0  0  0
  7  8  1  0  0  0  0
  8  9  1  0  0  0  0
  8 10  1  0  0  0  0
  8 11  1  0  0  0  0
  7 12  1  0  0  0  0
  7 13  1  0  0  0  0
  6 14  1  0  0  0  0
  6 15  1  0  0  0  0
  5 16  1  0  0  0  0
  5 17  1  0  0  0  0
  4 18  1  0  0  0  0
  4 19  1  0  0  0  0
  3 20  1  0  0  0  0
  3 21  1  0  0  0  0
  2 22  1  0  0  0  0
  2 23  1  0  0  0  0
  1 24  1  0  0  0  0
 24 25  1  0  0  0  0
 25 26  4  0  0  0  0
 26 27  1  0  0  0  0
 26 28  4  0  0  0  0
 28 29  1  0  0  0  0
 28 30  4  0  0  0  0
 30 31  1  0  0  0  0
 31 32  3  0  0  0  0
 30 33  4  0  0  0  0
 33 34  1  0  0  0  0
 33 35  4  0  0  0  0
 35 25  4  0  0  0  0
 35 36  1  0  0  0  0
  1 37  2  0  0  0  0
M  END
> <CAS>
1689-99-2

> <NAME>
BROMOXYNIL OCTANOATE

> <preferred_name>
Bromoxynil octanoate

> <iupac>
2,6-dibromo-4-cyanophenyl octanoate

> <SMILES>
CCCCCCCC(=O)Oc1c(Br)cc(cc1Br)C#N

> <Canonical_QSARr>
CCCCCCCC(=O)Oc1c(Br)cc(cc1Br)C#N

> <InChI_Code_QSARr>
InChI=1S/C15H17Br2NO2/c1-2-3-4-5-6-7-14(19)20-15-12(16)8-11(10-18)9-13(15)17/h8-9H,2-7H2,1H3

> <InChI Key_QSARr>
DQKWXTIYGWPGOO-UHFFFAOYSA-N

> <Salt_Solvent>
?

> <WS Temperature>
25

> <WS Reference>
USDA PESTICIDE PROPERTIES DATABASE

> <dsstox_substance_id>
DTXSID7023932

> <LogMolar>
-6.7023

$$$$
1730-37-6
  -INDIGO-01081615412D

 26 28  0  0  0  0  0  0  0  0999 V2000
    0.8000    1.3856    0.0000 C   0  0  0  0  0  0  0  0  0  0  0  0
    0.0000    2.7713    0.0000 C   0  0  0  0  0  0  0  0  0  0  0  0
    0.8000    4.1569    0.0000 H   0  0  0  0  0  0  0  0  0  0  0  0
   -1.6000    2.7713    0.0000 C   0  0  0  0  0  0  0  0  0  0  0  0
   -2.4000    4.1569    0.0000 H   0  0  0  0  0  0  0  0  0  0  0  0
   -2.4000    1.3856    0.0000 C   0  0  0  0  0  0  0  0  0  0  0  0
   -4.0000    1.3856    0.0000 H   0  0  0  0  0  0  0  0  0  0  0  0
   -1.6000    0.0000    0.0000 C   0  0  0  0  0  0  0  0  0  0  0  0
   -2.4000   -1.3856    0.0000 C   0  0  0  0  0  0  0  0  0  0  0  0
   -3.2000   -2.7713    0.0000 H   0  0  0  0  0  0  0  0  0  0  0  0
   -4.0000   -1.3856    0.0000 H   0  0  0  0  0  0  0  0  0  0  0  0
   -1.6000   -2.7713    0.0000 H   0  0  0  0  0  0  0  0  0  0  0  0
    0.0000    0.0000    0.0000 C   0  0  0  0  0  0  0  0  0  0  0  0
    1.0707   -1.1891    0.0000 C   0  0  0  0  0  0  0  0  0  0  0  0
   -0.2237   -2.1295    0.0000 H   0  0  0  0  0  0  0  0  0  0  0  0
    1.8707   -2.5747    0.0000 H   0  0  0  0  0  0  0  0  0  0  0  0
    2.5322   -0.5383    0.0000 C   0  0  0  0  0  0  0  0  0  0  0  0
    3.9939   -1.1891    0.0000 C   0  0  0  0  0  0  0  0  0  0  0  0
    5.2883   -0.2485    0.0000 C   0  0  0  0  0  0  0  0  0  0  0  0
    5.1212    1.3427    0.0000 C   0  0  0  0  0  0  0  0  0  0  0  0
    3.6595    1.9935    0.0000 C   0  0  0  0  0  0  0  0  0  0  0  0
    3.4921    3.5847    0.0000 H   0  0  0  0  0  0  0  0  0  0  0  0
    2.3651    1.0529    0.0000 C   0  0  0  0  0  0  0  0  0  0  0  0
    6.4156    2.2831    0.0000 H   0  0  0  0  0  0  0  0  0  0  0  0
    6.7501   -0.8993    0.0000 H   0  0  0  0  0  0  0  0  0  0  0  0
    4.1612   -2.7803    0.0000 H   0  0  0  0  0  0  0  0  0  0  0  0
  1  2  4  0  0  0  0
  2  3  1  0  0  0  0
  2  4  4  0  0  0  0
  4  5  1  0  0  0  0
  4  6  4  0  0  0  0
  6  7  1  0  0  0  0
  6  8  4  0  0  0  0
  8  9  1  0  0  0  0
  9 10  1  0  0  0  0
  9 11  1  0  0  0  0
  9 12  1  0  0  0  0
  8 13  4  0  0  0  0
 13  1  4  0  0  0  0
 13 14  1  0  0  0  0
 14 15  1  0  0  0  0
 14 16  1  0  0  0  0
 14 17  1  0  0  0  0
 17 18  4  0  0  0  0
 18 19  4  0  0  0  0
 19 20  4  0  0  0  0
 20 21  4  0  0  0  0
 21 22  1  0  0  0  0
 21 23  4  0  0  0  0
 23  1  1  0  0  0  0
 23 17  4  0  0  0  0
 20 24  1  0  0  0  0
 19 25  1  0  0  0  0
 18 26  1  0  0  0  0
M  END
> <CAS>
1730-37-6

> <NAME>
1-METHYLFLUORENE

> <preferred_name>
1-Methylfluorene

> <iupac>
1-methyl-9H-fluorene

> <SMILES>
Cc1cccc2c1Cc1ccccc-21

> <Canonical_QSARr>
Cc1cccc2c1Cc1ccccc-21

> <InChI_Code_QSARr>
InChI=1S/C14H12/c1-10-5-4-8-13-12-7-3-2-6-11(12)9-14(10)13/h2-8H,9H2,1H3

> <InChI Key_QSARr>
GKEUODMJRFDLJY-UHFFFAOYSA-N

> <Salt_Solvent>
?

> <WS Temperature>
25

> <WS Reference>
YALKOWSKY,SH & DANNENFELSER,RM (1992)

> <dsstox_substance_id>
DTXSID4061919

> <LogMolar>
-5.2184

$$$$
1740-19-8
  -INDIGO-01081615412D

 50 52  0  0  0  0  0  0  0  0999 V2000
    0.0000   -0.0000    0.0000 C   0  0  0  0  0  0  0  0  0  0  0  0
    1.0285    1.2257    0.0000 C   0  0  0  0  0  0  0  0  0  0  0  0
    2.4140    0.4257    0.0000 H   0  0  0  0  0  0  0  0  0  0  0  0
    0.7507    2.8014    0.0000 H   0  0  0  0  0  0  0  0  0  0  0  0
    1.4195    2.0148    0.0000 H   0  0  0  0  0  0  0  0  0  0  0  0
   -0.8000    1.3856    0.0000 C   0  0  0  0  0  0  0  0  0  0  0  0
    0.7035    1.9328    0.0000 H   0  0  0  0  0  0  0  0  0  0  0  0
   -1.0778    2.9614    0.0000 H   0  0  0  0  0  0  0  0  0  0  0  0
   -2.4000    1.3856    0.0000 C   0  0  0  0  0  0  0  0  0  0  0  0
   -2.1223    2.9614    0.0000 H   0  0  0  0  0  0  0  0  0  0  0  0
   -3.9035    1.9328    0.0000 H   0  0  0  0  0  0  0  0  0  0  0  0
   -3.2001   -0.0000    0.0000 C   0  0  0  0  0  0  0  0  0  0  0  0
   -4.4258    1.0285    0.0000 H   0  0  0  0  0  0  0  0  0  0  0  0
   -4.4258   -1.0285    0.0000 H   0  0  0  0  0  0  0  0  0  0  0  0
   -2.4000   -1.3856    0.0000 C   0  0  0  0  0  0  0  0  0  0  0  0
   -3.9035   -1.9329    0.0000 C   0  0  0  0  0  0  0  0  0  0  0  0
   -5.4070   -2.4801    0.0000 H   0  0  0  0  0  0  0  0  0  0  0  0
   -4.1813   -3.5085    0.0000 H   0  0  0  0  0  0  0  0  0  0  0  0
   -5.2892   -1.1329    0.0000 H   0  0  0  0  0  0  0  0  0  0  0  0
   -2.1223   -2.9613    0.0000 C   0  0  0  0  0  0  0  0  0  0  0  0
   -3.3477   -3.9897    0.0000 O   0  0  0  0  0  0  0  0  0  0  0  0
   -3.0700   -5.5655    0.0000 H   0  0  0  0  0  0  0  0  0  0  0  0
   -1.4193   -3.6187    0.0000 O   0  0  0  0  0  0  0  0  0  0  0  0
   -0.8000   -1.3856    0.0000 C   0  0  0  0  0  0  0  0  0  0  0  0
   -1.6000   -2.7713    0.0000 H   0  0  0  0  0  0  0  0  0  0  0  0
    0.0000   -2.7713    0.0000 C   0  0  0  0  0  0  0  0  0  0  0  0
   -0.6185   -3.5085    0.0000 H   0  0  0  0  0  0  0  0  0  0  0  0
    0.2778   -4.3470    0.0000 H   0  0  0  0  0  0  0  0  0  0  0  0
    1.6000   -2.7713    0.0000 C   0  0  0  0  0  0  0  0  0  0  0  0
    1.3223   -4.3470    0.0000 H   0  0  0  0  0  0  0  0  0  0  0  0
    3.1035   -3.3186    0.0000 H   0  0  0  0  0  0  0  0  0  0  0  0
    2.4001   -1.3856    0.0000 C   0  0  0  0  0  0  0  0  0  0  0  0
    4.0001   -1.3856    0.0000 C   0  0  0  0  0  0  0  0  0  0  0  0
    4.7999   -0.0000    0.0000 C   0  0  0  0  0  0  0  0  0  0  0  0
    6.3999   -0.0000    0.0000 C   0  0  0  0  0  0  0  0  0  0  0  0
    7.9758   -0.2778    0.0000 C   0  0  0  0  0  0  0  0  0  0  0  0
    9.5514   -0.5556    0.0000 H   0  0  0  0  0  0  0  0  0  0  0  0
    9.0040    0.9479    0.0000 H   0  0  0  0  0  0  0  0  0  0  0  0
    8.5229   -1.7814    0.0000 H   0  0  0  0  0  0  0  0  0  0  0  0
    6.3999    1.6000    0.0000 C   0  0  0  0  0  0  0  0  0  0  0  0
    6.3999    3.2000    0.0000 H   0  0  0  0  0  0  0  0  0  0  0  0
    7.7856    2.4000    0.0000 H   0  0  0  0  0  0  0  0  0  0  0  0
    7.7856    0.7999    0.0000 H   0  0  0  0  0  0  0  0  0  0  0  0
    6.3999   -1.6000    0.0000 H   0  0  0  0  0  0  0  0  0  0  0  0
    4.0001    1.3856    0.0000 C   0  0  0  0  0  0  0  0  0  0  0  0
    2.4001    1.3856    0.0000 C   0  0  0  0  0  0  0  0  0  0  0  0
    2.2542    2.2541    0.0000 H   0  0  0  0  0  0  0  0  0  0  0  0
    1.6000   -0.0000    0.0000 C   0  0  0  0  0  0  0  0  0  0  0  0
    4.7999    2.7713    0.0000 H   0  0  0  0  0  0  0  0  0  0  0  0
    4.7999   -2.7713    0.0000 H   0  0  0  0  0  0  0  0  0  0  0  0
  1  2  1  0  0  0  0
  2  3  1  0  0  0  0
  2  4  1  0  0  0  0
  2  5  1  0  0  0  0
  1  6  1  0  0  0  0
  6  7  1  0  0  0  0
  6  8  1  0  0  0  0
  6  9  1  0  0  0  0
  9 10  1  0  0  0  0
  9 11  1  0  0  0  0
  9 12  1  0  0  0  0
 12 13  1  0  0  0  0
 12 14  1  0  0  0  0
 12 15  1  0  0  0  0
 15 16  1  0  0  0  0
 16 17  1  0  0  0  0
 16 18  1  0  0  0  0
 16 19  1  0  0  0  0
 15 20  1  0  0  0  0
 20 21  1  0  0  0  0
 21 22  1  0  0  0  0
 20 23  2  0  0  0  0
 15 24  1  0  0  0  0
 24  1  1  0  0  0  0
 24 25  1  0  0  0  0
 24 26  1  0  0  0  0
 26 27  1  0  0  0  0
 26 28  1  0  0  0  0
 26 29  1  0  0  0  0
 29 30  1  0  0  0  0
 29 31  1  0  0  0  0
 29 32  1  0  0  0  0
 32 33  4  0  0  0  0
 33 34  4  0  0  0  0
 34 35  1  0  0  0  0
 35 36  1  0  0  0  0
 36 37  1  0  0  0  0
 36 38  1  0  0  0  0
 36 39  1  0  0  0  0
 35 40  1  0  0  0  0
 40 41  1  0  0  0  0
 40 42  1  0  0  0  0
 40 43  1  0  0  0  0
 35 44  1  0  0  0  0
 34 45  4  0  0  0  0
 45 46  4  0  0  0  0
 46 47  1  0  0  0  0
 46 48  4  0  0  0  0
 48  1  1  0  0  0  0
 48 32  4  0  0  0  0
 45 49  1  0  0  0  0
 33 50  1  0  0  0  0
M  END
> <CAS>
1740-19-8

> <NAME>
Dehydroabietic acid

> <preferred_name>
Dehydroabietic acid

> <iupac>
C20H28O2

> <SMILES>
CC(C)c1ccc2c(CC[C@H]3[C@@](C)(CCC[C@]23C)C(O)=O)c1

> <Canonical_QSARr>
CC(C)c1ccc2c(CCC3C(C)(CCCC23C)C(O)=O)c1

> <InChI_Code_QSARr>
InChI=1S/C20H28O2/c1-13(2)14-6-8-16-15(12-14)7-9-17-19(16,3)10-5-11-20(17,4)18(21)22/h6,8,12-13,17H,5,7,9-11H2,1-4H3,(H,21,22)

> <InChI Key_QSARr>
NFWKVWVWBFBAOV-UHFFFAOYSA-N

> <Salt_Solvent>
?

> <WS Temperature>


> <WS Reference>
KUKKONEN,J & OIKARI,A (1991)

> <dsstox_substance_id>
DTXSID8022163

> <LogMolar>
-4.6582

$$$$
1752-96-1
  -INDIGO-01081615412D

 25 26  0  0  0  0  0  0  0  0999 V2000
    1.6000   -2.7713    0.0000 O   0  0  0  0  0  0  0  0  0  0  0  0
    2.4000   -1.3856    0.0000 C   0  0  0  0  0  0  0  0  0  0  0  0
    4.0000   -1.3856    0.0000 C   0  0  0  0  0  0  0  0  0  0  0  0
    4.8000   -2.7713    0.0000 C   0  0  0  0  0  0  0  0  0  0  0  0
    4.0000   -4.1569    0.0000 H   0  0  0  0  0  0  0  0  0  0  0  0
    6.4000   -2.7713    0.0000 N   0  0  0  1  0  0  0  0  0  0  0  0
    7.2000   -1.3856    0.0000 C   0  0  0  0  0  0  0  0  0  0  0  0
    8.8000   -1.3856    0.0000 H   0  0  0  0  0  0  0  0  0  0  0  0
    6.4000    0.0000    0.0000 C   0  0  0  0  0  0  0  0  0  0  0  0
    7.2000    1.3856    0.0000 H   0  0  0  0  0  0  0  0  0  0  0  0
    4.8000    0.0000    0.0000 C   0  0  0  0  0  0  0  0  0  0  0  0
    4.0000    1.3856    0.0000 H   0  0  0  0  0  0  0  0  0  0  0  0
    1.6000    0.0000    0.0000 N   0  0  0  0  0  0  0  0  0  0  0  0
    0.0000    0.0000    0.0000 C   0  0  0  0  0  0  0  0  0  0  0  0
   -0.8000    1.3856    0.0000 C   0  0  0  0  0  0  0  0  0  0  0  0
    0.0000    2.7713    0.0000 H   0  0  0  0  0  0  0  0  0  0  0  0
   -2.4000    1.3856    0.0000 C   0  0  0  0  0  0  0  0  0  0  0  0
   -3.2000    2.7713    0.0000 H   0  0  0  0  0  0  0  0  0  0  0  0
   -3.2000    0.0000    0.0000 C   0  0  0  0  0  0  0  0  0  0  0  0
   -4.8000    0.0000    0.0000 H   0  0  0  0  0  0  0  0  0  0  0  0
   -2.4000   -1.3856    0.0000 C   0  0  0  0  0  0  0  0  0  0  0  0
   -3.2000   -2.7713    0.0000 H   0  0  0  0  0  0  0  0  0  0  0  0
   -0.8000   -1.3856    0.0000 C   0  0  0  0  0  0  0  0  0  0  0  0
    0.0000   -2.7713    0.0000 H   0  0  0  0  0  0  0  0  0  0  0  0
    2.4000    1.3856    0.0000 H   0  0  0  0  0  0  0  0  0  0  0  0
  1  2  2  0  0  0  0
  2  3  1  0  0  0  0
  3  4  4  0  0  0  0
  4  5  1  0  0  0  0
  4  6  4  0  0  0  0
  6  7  4  0  0  0  0
  7  8  1  0  0  0  0
  7  9  4  0  0  0  0
  9 10  1  0  0  0  0
  9 11  4  0  0  0  0
 11  3  4  0  0  0  0
 11 12  1  0  0  0  0
  2 13  1  0  0  0  0
 13 14  1  0  0  0  0
 14 15  4  0  0  0  0
 15 16  1  0  0  0  0
 15 17  4  0  0  0  0
 17 18  1  0  0  0  0
 17 19  4  0  0  0  0
 19 20  1  0  0  0  0
 19 21  4  0  0  0  0
 21 22  1  0  0  0  0
 21 23  4  0  0  0  0
 23 14  4  0  0  0  0
 23 24  1  0  0  0  0
 13 25  1  0  0  0  0
M  END
> <CAS>
1752-96-1

> <NAME>
NICOTINANILIDE

> <preferred_name>
Nicotinanilide

> <iupac>
N-phenylpyridine-3-carboxamide

> <SMILES>
O=C(Nc1ccccc1)c1c[n]ccc1

> <Canonical_QSARr>
O=C(Nc1ccccc1)c1c[n]ccc1

> <InChI_Code_QSARr>
InChI=1S/C12H10N2O/c15-12(10-5-4-8-13-9-10)14-11-6-2-1-3-7-11/h1-9H,(H,14,15)

> <InChI Key_QSARr>
NYQXIOZBHWFCBU-UHFFFAOYSA-N

> <Salt_Solvent>
?

> <WS Temperature>
25

> <WS Reference>
BEILSTEIN

> <dsstox_substance_id>
DTXSID10169950

> <LogMolar>
-3.093

$$$$
1777-82-8
  -INDIGO-01081615412D

 16 16  0  0  0  0  0  0  0  0999 V2000
    1.6000    0.0000    0.0000 C   0  0  0  0  0  0  0  0  0  0  0  0
    3.2000    0.0000    0.0000 O   0  0  0  0  0  0  0  0  0  0  0  0
    4.0000   -1.3856    0.0000 H   0  0  0  0  0  0  0  0  0  0  0  0
   -0.0000   -0.0000    0.0000 C   0  0  0  0  0  0  0  0  0  0  0  0
   -0.8000    1.3856    0.0000 C   0  0  0  0  0  0  0  0  0  0  0  0
   -0.0000    2.7713    0.0000 H   0  0  0  0  0  0  0  0  0  0  0  0
   -2.4000    1.3856    0.0000 C   0  0  0  0  0  0  0  0  0  0  0  0
   -3.2001    2.7713    0.0000 H   0  0  0  0  0  0  0  0  0  0  0  0
   -3.2001   -0.0000    0.0000 C   0  0  0  0  0  0  0  0  0  0  0  0
   -4.8000   -0.0000    0.0000 Cl  0  0  0  0  0  0  0  0  0  0  0  0
   -2.4000   -1.3856    0.0000 C   0  0  0  0  0  0  0  0  0  0  0  0
   -3.2001   -2.7713    0.0000 H   0  0  0  0  0  0  0  0  0  0  0  0
   -0.8000   -1.3856    0.0000 C   0  0  0  0  0  0  0  0  0  0  0  0
   -0.0000   -2.7713    0.0000 Cl  0  0  0  0  0  0  0  0  0  0  0  0
    1.6000   -1.6000    0.0000 H   0  0  0  0  0  0  0  0  0  0  0  0
    1.6000    1.6000    0.0000 H   0  0  0  0  0  0  0  0  0  0  0  0
  1  2  1  0  0  0  0
  2  3  1  0  0  0  0
  1  4  1  0  0  0  0
  4  5  4  0  0  0  0
  5  6  1  0  0  0  0
  5  7  4  0  0  0  0
  7  8  1  0  0  0  0
  7  9  4  0  0  0  0
  9 10  1  0  0  0  0
  9 11  4  0  0  0  0
 11 12  1  0  0  0  0
 11 13  4  0  0  0  0
 13  4  4  0  0  0  0
 13 14  1  0  0  0  0
  1 15  1  0  0  0  0
  1 16  1  0  0  0  0
M  END
> <CAS>
1777-82-8

> <NAME>
BENZENEMETHANOL, 2,4-DICHLORO-

> <preferred_name>
2,4-Dichlorobenzyl alcohol

> <iupac>
(2,4-dichlorophenyl)methanol

> <SMILES>
OCc1ccc(Cl)cc1Cl

> <Canonical_QSARr>
OCc1ccc(Cl)cc1Cl

> <InChI_Code_QSARr>
InChI=1S/C7H6Cl2O/c8-6-2-1-5(4-10)7(9)3-6/h1-3,10H,4H2

> <InChI Key_QSARr>
DBHODFSFBXJZNY-UHFFFAOYSA-N

> <Salt_Solvent>
?

> <WS Temperature>
20

> <WS Reference>
BEILSTEIN

> <dsstox_substance_id>
DTXSID9041362

> <LogMolar>
-2.248

$$$$
1805-32-9
  -INDIGO-01081615412D

 16 16  0  0  0  0  0  0  0  0999 V2000
   -3.2001    2.7713    0.0000 Cl  0  0  0  0  0  0  0  0  0  0  0  0
   -2.4000    1.3856    0.0000 C   0  0  0  0  0  0  0  0  0  0  0  0
   -3.2001   -0.0000    0.0000 C   0  0  0  0  0  0  0  0  0  0  0  0
   -4.8000   -0.0000    0.0000 Cl  0  0  0  0  0  0  0  0  0  0  0  0
   -2.4000   -1.3856    0.0000 C   0  0  0  0  0  0  0  0  0  0  0  0
   -3.2001   -2.7713    0.0000 H   0  0  0  0  0  0  0  0  0  0  0  0
   -0.8000   -1.3856    0.0000 C   0  0  0  0  0  0  0  0  0  0  0  0
   -0.0000   -2.7713    0.0000 H   0  0  0  0  0  0  0  0  0  0  0  0
   -0.0000    0.0000    0.0000 C   0  0  0  0  0  0  0  0  0  0  0  0
    1.6000    0.0000    0.0000 C   0  0  0  0  0  0  0  0  0  0  0  0
    3.2000    0.0000    0.0000 O   0  0  0  0  0  0  0  0  0  0  0  0
    4.0000    1.3856    0.0000 H   0  0  0  0  0  0  0  0  0  0  0  0
    1.6000    1.6000    0.0000 H   0  0  0  0  0  0  0  0  0  0  0  0
    1.6000   -1.6000    0.0000 H   0  0  0  0  0  0  0  0  0  0  0  0
   -0.8000    1.3856    0.0000 C   0  0  0  0  0  0  0  0  0  0  0  0
   -0.0000    2.7713    0.0000 H   0  0  0  0  0  0  0  0  0  0  0  0
  1  2  1  0  0  0  0
  2  3  4  0  0  0  0
  3  4  1  0  0  0  0
  3  5  4  0  0  0  0
  5  6  1  0  0  0  0
  5  7  4  0  0  0  0
  7  8  1  0  0  0  0
  7  9  4  0  0  0  0
  9 10  1  0  0  0  0
 10 11  1  0  0  0  0
 11 12  1  0  0  0  0
 10 13  1  0  0  0  0
 10 14  1  0  0  0  0
  9 15  4  0  0  0  0
 15  2  4  0  0  0  0
 15 16  1  0  0  0  0
M  END
> <CAS>
1805-32-9

> <NAME>
3,4-DICHLOROBENZYL ALCOHOL

> <preferred_name>
3,4-Dichlorobenzyl alcohol

> <iupac>
(3,4-dichlorophenyl)methanol

> <SMILES>
OCc1cc(Cl)c(Cl)cc1

> <Canonical_QSARr>
OCc1cc(Cl)c(Cl)cc1

> <InChI_Code_QSARr>
InChI=1S/C7H6Cl2O/c8-6-2-1-5(4-10)3-7(6)9/h1-3,10H,4H2

> <InChI Key_QSARr>
FVJIUQSKXOYFKG-UHFFFAOYSA-N

> <Salt_Solvent>
?

> <WS Temperature>
25

> <WS Reference>
CHEMICALS INSPECTION AND TESTING INSTITU (1992)

> <dsstox_substance_id>
DTXSID70170966

> <LogMolar>
-2.0439

$$$$
1838-73-9
  -INDIGO-01081615412D

 27 26  0  0  0  0  0  0  0  0999 V2000
   -3.1514   -0.5557    0.0000 C   0  0  0  0  0  0  0  0  0  0  0  0
   -1.5756   -0.2778    0.0000 C   0  0  0  0  0  0  0  0  0  0  0  0
    0.0001    0.0000    0.0000 C   0  0  0  0  0  0  0  0  0  0  0  0
    0.0001    1.6000    0.0000 C   0  0  0  0  0  0  0  0  0  0  0  0
    0.0001    3.2000    0.0000 H   0  0  0  0  0  0  0  0  0  0  0  0
   -1.3856    2.4000    0.0000 H   0  0  0  0  0  0  0  0  0  0  0  0
    1.3856    2.4000    0.0000 H   0  0  0  0  0  0  0  0  0  0  0  0
    1.5758   -0.2778    0.0000 C   0  0  0  0  0  0  0  0  0  0  0  0
    1.2978   -1.8536    0.0000 O   0  0  0  0  0  0  0  0  0  0  0  0
    2.0978   -3.2392    0.0000 H   0  0  0  0  0  0  0  0  0  0  0  0
    3.1513   -0.5557    0.0000 C   0  0  0  0  0  0  0  0  0  0  0  0
    4.7270   -0.8335    0.0000 C   0  0  0  0  0  0  0  0  0  0  0  0
    6.3027   -1.1114    0.0000 C   0  0  0  0  0  0  0  0  0  0  0  0
    7.8785   -1.3892    0.0000 H   0  0  0  0  0  0  0  0  0  0  0  0
    7.3312    0.1143    0.0000 H   0  0  0  0  0  0  0  0  0  0  0  0
    6.8500   -2.6149    0.0000 H   0  0  0  0  0  0  0  0  0  0  0  0
    5.0050    0.7421    0.0000 H   0  0  0  0  0  0  0  0  0  0  0  0
    4.4493   -2.4092    0.0000 H   0  0  0  0  0  0  0  0  0  0  0  0
    3.4293    1.0200    0.0000 H   0  0  0  0  0  0  0  0  0  0  0  0
    2.8736   -2.1313    0.0000 H   0  0  0  0  0  0  0  0  0  0  0  0
    1.8535    1.2979    0.0000 H   0  0  0  0  0  0  0  0  0  0  0  0
    0.0001   -1.6000    0.0000 H   0  0  0  0  0  0  0  0  0  0  0  0
   -1.2979   -1.8536    0.0000 H   0  0  0  0  0  0  0  0  0  0  0  0
   -1.8536    1.2979    0.0000 H   0  0  0  0  0  0  0  0  0  0  0  0
   -4.7271   -0.8335    0.0000 H   0  0  0  0  0  0  0  0  0  0  0  0
   -3.6986   -2.0592    0.0000 H   0  0  0  0  0  0  0  0  0  0  0  0
   -4.1798    0.6700    0.0000 H   0  0  0  0  0  0  0  0  0  0  0  0
  1  2  1  0  0  0  0
  2  3  1  0  0  0  0
  3  4  1  0  0  0  0
  4  5  1  0  0  0  0
  4  6  1  0  0  0  0
  4  7  1  0  0  0  0
  3  8  1  0  0  0  0
  8  9  1  0  0  0  0
  9 10  1  0  0  0  0
  8 11  1  0  0  0  0
 11 12  1  0  0  0  0
 12 13  1  0  0  0  0
 13 14  1  0  0  0  0
 13 15  1  0  0  0  0
 13 16  1  0  0  0  0
 12 17  1  0  0  0  0
 12 18  1  0  0  0  0
 11 19  1  0  0  0  0
 11 20  1  0  0  0  0
  8 21  1  0  0  0  0
  3 22  1  0  0  0  0
  2 23  1  0  0  0  0
  2 24  1  0  0  0  0
  1 25  1  0  0  0  0
  1 26  1  0  0  0  0
  1 27  1  0  0  0  0
M  END
> <CAS>
1838-73-9

> <NAME>
4-Heptanol, 3-methyl-

> <preferred_name>


> <iupac>


> <SMILES>
CC(CC)C(O)CCC

> <Canonical_QSARr>
CC(CC)C(O)CCC

> <InChI_Code_QSARr>
InChI=1S/C8H18O/c1-4-6-8(9)7(3)5-2/h7-9H,4-6H2,1-3H3

> <InChI Key_QSARr>
JMRDKKYZLXDPLN-UHFFFAOYSA-N

> <Salt_Solvent>
?

> <WS Temperature>
25

> <WS Reference>
BEILSTEIN

> <dsstox_substance_id>


> <LogMolar>
-1.8406

$$$$
1861-32-1
  -INDIGO-01081615412D

 24 24  0  0  0  0  0  0  0  0999 V2000
   -0.0000   -0.0000    0.0000 C   0  0  0  0  0  0  0  0  0  0  0  0
    1.6000    0.0000    0.0000 C   0  0  0  0  0  0  0  0  0  0  0  0
    2.4001   -1.3856    0.0000 O   0  0  0  0  0  0  0  0  0  0  0  0
    3.9999   -1.3856    0.0000 C   0  0  0  0  0  0  0  0  0  0  0  0
    5.6000   -1.3856    0.0000 H   0  0  0  0  0  0  0  0  0  0  0  0
    4.8000   -2.7713    0.0000 H   0  0  0  0  0  0  0  0  0  0  0  0
    4.8000    0.0000    0.0000 H   0  0  0  0  0  0  0  0  0  0  0  0
    2.4001    1.3856    0.0000 O   0  0  0  0  0  0  0  0  0  0  0  0
   -0.8001    1.3856    0.0000 C   0  0  0  0  0  0  0  0  0  0  0  0
   -0.0000    2.7713    0.0000 Cl  0  0  0  0  0  0  0  0  0  0  0  0
   -2.3999    1.3856    0.0000 C   0  0  0  0  0  0  0  0  0  0  0  0
   -3.2000    2.7713    0.0000 Cl  0  0  0  0  0  0  0  0  0  0  0  0
   -3.2000   -0.0000    0.0000 C   0  0  0  0  0  0  0  0  0  0  0  0
   -4.8000   -0.0000    0.0000 C   0  0  0  0  0  0  0  0  0  0  0  0
   -5.6001    1.3856    0.0000 O   0  0  0  0  0  0  0  0  0  0  0  0
   -7.1999    1.3856    0.0000 C   0  0  0  0  0  0  0  0  0  0  0  0
   -8.8000    1.3856    0.0000 H   0  0  0  0  0  0  0  0  0  0  0  0
   -8.0000    2.7713    0.0000 H   0  0  0  0  0  0  0  0  0  0  0  0
   -8.0000   -0.0000    0.0000 H   0  0  0  0  0  0  0  0  0  0  0  0
   -5.6001   -1.3856    0.0000 O   0  0  0  0  0  0  0  0  0  0  0  0
   -2.3999   -1.3856    0.0000 C   0  0  0  0  0  0  0  0  0  0  0  0
   -3.2000   -2.7713    0.0000 Cl  0  0  0  0  0  0  0  0  0  0  0  0
   -0.8001   -1.3856    0.0000 C   0  0  0  0  0  0  0  0  0  0  0  0
   -0.0000   -2.7713    0.0000 Cl  0  0  0  0  0  0  0  0  0  0  0  0
  1  2  1  0  0  0  0
  2  3  1  0  0  0  0
  3  4  1  0  0  0  0
  4  5  1  0  0  0  0
  4  6  1  0  0  0  0
  4  7  1  0  0  0  0
  2  8  2  0  0  0  0
  1  9  4  0  0  0  0
  9 10  1  0  0  0  0
  9 11  4  0  0  0  0
 11 12  1  0  0  0  0
 11 13  4  0  0  0  0
 13 14  1  0  0  0  0
 14 15  1  0  0  0  0
 15 16  1  0  0  0  0
 16 17  1  0  0  0  0
 16 18  1  0  0  0  0
 16 19  1  0  0  0  0
 14 20  2  0  0  0  0
 13 21  4  0  0  0  0
 21 22  1  0  0  0  0
 21 23  4  0  0  0  0
 23  1  4  0  0  0  0
 23 24  1  0  0  0  0
M  END
> <CAS>
1861-32-1

> <NAME>
DIMETHYL TETRACHLOROTEREPHTHALATE

> <preferred_name>
Chlorthal-dimethyl

> <iupac>
dimethyl 2,3,5,6-tetrachlorobenzene-1,4-dicarboxylate

> <SMILES>
COC(=O)c1c(Cl)c(Cl)c(c(Cl)c1Cl)C(=O)OC

> <Canonical_QSARr>
COC(=O)c1c(Cl)c(Cl)c(c(Cl)c1Cl)C(=O)OC

> <InChI_Code_QSARr>
InChI=1S/C10H6Cl4O4/c1-17-9(15)3-5(11)7(13)4(10(16)18-2)8(14)6(3)12/h1-2H3

> <InChI Key_QSARr>
NPOJQCVWMSKXDN-UHFFFAOYSA-N

> <Salt_Solvent>
?

> <WS Temperature>
25

> <WS Reference>
TOMLIN,C (1997)

> <dsstox_substance_id>
DTXSID0024000

> <LogMolar>
-5.8221

$$$$
1871-89-2
  -INDIGO-01081615412D

 24 23  0  0  0  0  0  0  0  0999 V2000
   -4.1568    2.4000    0.0000 O   0  0  0  0  0  0  0  0  0  0  0  0
   -4.1568    0.8000    0.0000 C   0  0  0  0  0  0  0  0  0  0  0  0
   -5.5425   -0.0000    0.0000 N   0  0  0  0  0  0  0  0  0  0  0  0
   -6.9282    0.8000    0.0000 C   0  0  0  0  0  0  0  0  0  0  0  0
   -8.3139    1.6000    0.0000 C   0  0  0  0  0  0  0  0  0  0  0  0
   -9.6994    2.4000    0.0000 O   0  0  0  0  0  0  0  0  0  0  0  0
  -11.0851    1.6000    0.0000 H   0  0  0  0  0  0  0  0  0  0  0  0
   -9.1138    0.2144    0.0000 H   0  0  0  0  0  0  0  0  0  0  0  0
   -7.5139    2.9856    0.0000 H   0  0  0  0  0  0  0  0  0  0  0  0
   -7.7283   -0.5856    0.0000 H   0  0  0  0  0  0  0  0  0  0  0  0
   -6.1282    2.1857    0.0000 H   0  0  0  0  0  0  0  0  0  0  0  0
   -5.5425   -1.6000    0.0000 H   0  0  0  0  0  0  0  0  0  0  0  0
   -2.7714   -0.0000    0.0000 C   0  0  0  0  0  0  0  0  0  0  0  0
   -1.3857    0.8000    0.0000 N   0  0  0  0  0  0  0  0  0  0  0  0
    0.0000   -0.0000    0.0000 C   0  0  0  0  0  0  0  0  0  0  0  0
    1.3857   -0.8000    0.0000 C   0  0  0  0  0  0  0  0  0  0  0  0
    2.7712   -1.6000    0.0000 O   0  0  0  0  0  0  0  0  0  0  0  0
    4.1569   -0.8000    0.0000 H   0  0  0  0  0  0  0  0  0  0  0  0
    0.5857   -2.1856    0.0000 H   0  0  0  0  0  0  0  0  0  0  0  0
    2.1856    0.5856    0.0000 H   0  0  0  0  0  0  0  0  0  0  0  0
    0.8001    1.3856    0.0000 H   0  0  0  0  0  0  0  0  0  0  0  0
   -0.8000   -1.3857    0.0000 H   0  0  0  0  0  0  0  0  0  0  0  0
   -1.3857    2.4000    0.0000 H   0  0  0  0  0  0  0  0  0  0  0  0
   -2.7714   -1.6000    0.0000 O   0  0  0  0  0  0  0  0  0  0  0  0
  1  2  2  0  0  0  0
  2  3  1  0  0  0  0
  3  4  1  0  0  0  0
  4  5  1  0  0  0  0
  5  6  1  0  0  0  0
  6  7  1  0  0  0  0
  5  8  1  0  0  0  0
  5  9  1  0  0  0  0
  4 10  1  0  0  0  0
  4 11  1  0  0  0  0
  3 12  1  0  0  0  0
  2 13  1  0  0  0  0
 13 14  1  0  0  0  0
 14 15  1  0  0  0  0
 15 16  1  0  0  0  0
 16 17  1  0  0  0  0
 17 18  1  0  0  0  0
 16 19  1  0  0  0  0
 16 20  1  0  0  0  0
 15 21  1  0  0  0  0
 15 22  1  0  0  0  0
 14 23  1  0  0  0  0
 13 24  2  0  0  0  0
M  END
> <CAS>
1871-89-2

> <NAME>
Ethanediamide, N,N'-bis(2-hydroxyethyl)-

> <preferred_name>
Ethanediamide, N1,N2-bis(2-hydroxyethyl)-

> <iupac>
N,N'-bis(2-hydroxyethyl)oxamide

> <SMILES>
OCCNC(=O)C(=O)NCCO

> <Canonical_QSARr>
OCCNC(=O)C(=O)NCCO

> <InChI_Code_QSARr>
InChI=1S/C6H12N2O4/c9-3-1-7-5(11)6(12)8-2-4-10/h9-10H,1-4H2,(H,7,11)(H,8,12)

> <InChI Key_QSARr>
FPQJEXTVQZHURJ-UHFFFAOYSA-N

> <Salt_Solvent>
?

> <WS Temperature>
20

> <WS Reference>
BEILSTEIN

> <dsstox_substance_id>
DTXSID6074596

> <LogMolar>
-0.1124

$$$$
1878-87-1
  -INDIGO-01081615412D

 21 21  0  0  0  0  0  0  0  0999 V2000
   -0.0000    0.0000    0.0000 C   0  0  0  0  0  0  0  0  0  0  0  0
   -0.8000    1.3857    0.0000 O   0  0  0  0  0  0  0  0  0  0  0  0
   -2.4000    1.3857    0.0000 C   0  0  0  0  0  0  0  0  0  0  0  0
   -4.0001    1.3857    0.0000 C   0  0  0  0  0  0  0  0  0  0  0  0
   -4.8000    0.0000    0.0000 O   0  0  0  0  0  0  0  0  0  0  0  0
   -4.8000    2.7713    0.0000 O   0  0  0  0  0  0  0  0  0  0  0  0
   -6.4000    2.7713    0.0000 H   0  0  0  0  0  0  0  0  0  0  0  0
   -2.4000    2.9856    0.0000 H   0  0  0  0  0  0  0  0  0  0  0  0
   -2.4000   -0.2144    0.0000 H   0  0  0  0  0  0  0  0  0  0  0  0
   -0.8000   -1.3857    0.0000 C   0  0  0  0  0  0  0  0  0  0  0  0
   -2.4000   -1.3857    0.0000 H   0  0  0  0  0  0  0  0  0  0  0  0
   -0.0000   -2.7712    0.0000 C   0  0  0  0  0  0  0  0  0  0  0  0
   -0.8000   -4.1569    0.0000 H   0  0  0  0  0  0  0  0  0  0  0  0
    1.6001   -2.7712    0.0000 C   0  0  0  0  0  0  0  0  0  0  0  0
    2.4000   -4.1569    0.0000 H   0  0  0  0  0  0  0  0  0  0  0  0
    2.4000   -1.3857    0.0000 C   0  0  0  0  0  0  0  0  0  0  0  0
    4.0000   -1.3857    0.0000 H   0  0  0  0  0  0  0  0  0  0  0  0
    1.6001    0.0000    0.0000 C   0  0  0  0  0  0  0  0  0  0  0  0
    2.4000    1.3857    0.0000 N   0  0  0  0  0  0  0  0  0  0  0  0
    4.0000    1.3857    0.0000 O   0  0  0  0  0  0  0  0  0  0  0  0
    1.6001    2.7713    0.0000 O   0  0  0  0  0  0  0  0  0  0  0  0
  1  2  1  0  0  0  0
  2  3  1  0  0  0  0
  3  4  1  0  0  0  0
  4  5  2  0  0  0  0
  4  6  1  0  0  0  0
  6  7  1  0  0  0  0
  3  8  1  0  0  0  0
  3  9  1  0  0  0  0
  1 10  4  0  0  0  0
 10 11  1  0  0  0  0
 10 12  4  0  0  0  0
 12 13  1  0  0  0  0
 12 14  4  0  0  0  0
 14 15  1  0  0  0  0
 14 16  4  0  0  0  0
 16 17  1  0  0  0  0
 16 18  4  0  0  0  0
 18  1  4  0  0  0  0
 18 19  1  0  0  0  0
 19 20  1  0  0  0  0
 19 21  2  0  0  0  0
M  CHG  2  19   1  20  -1
M  END
> <CAS>
1878-87-1

> <NAME>
O-NITROPHENOXYACETIC ACID

> <preferred_name>
(2-Nitrophenoxy)acetic acid

> <iupac>
2-(2-Nitrophenoxy)acetic acid

> <SMILES>
[O-][N+](=O)c1ccccc1OCC(O)=O

> <Canonical_QSARr>
[O-][N+](=O)c1ccccc1OCC(O)=O

> <InChI_Code_QSARr>
InChI=1S/C8H7NO5/c10-8(11)5-14-7-4-2-1-3-6(7)9(12)13/h1-4H,5H2,(H,10,11)

> <InChI Key_QSARr>
TYHHDWAHJRRYCU-UHFFFAOYSA-N

> <Salt_Solvent>
?

> <WS Temperature>
20

> <WS Reference>
BEILSTEIN

> <dsstox_substance_id>
DTXSID0075154

> <LogMolar>
-2.016

$$$$
1899-24-7
  -INDIGO-01081615412D

 11 11  0  0  0  0  0  0  0  0999 V2000
   -4.0363    0.9214    0.0000 Br  0  0  0  0  0  0  0  0  0  0  0  0
   -2.5747    0.2706    0.0000 C   0  0  0  0  0  0  0  0  0  0  0  0
   -2.2420   -1.2944    0.0000 C   0  0  0  0  0  0  0  0  0  0  0  0
   -3.3126   -2.4834    0.0000 H   0  0  0  0  0  0  0  0  0  0  0  0
   -0.6508   -1.4617    0.0000 C   0  0  0  0  0  0  0  0  0  0  0  0
    0.1492   -2.8473    0.0000 H   0  0  0  0  0  0  0  0  0  0  0  0
    0.0000    0.0000    0.0000 C   0  0  0  0  0  0  0  0  0  0  0  0
    1.5650    0.3327    0.0000 C   0  0  0  0  0  0  0  0  0  0  0  0
    2.0595    1.8543    0.0000 O   0  0  0  0  0  0  0  0  0  0  0  0
    2.6356   -0.8564    0.0000 H   0  0  0  0  0  0  0  0  0  0  0  0
   -1.1891    1.0706    0.0000 O   0  0  0  0  0  0  0  0  0  0  0  0
  1  2  1  0  0  0  0
  2  3  4  0  0  0  0
  3  4  1  0  0  0  0
  3  5  4  0  0  0  0
  5  6  1  0  0  0  0
  5  7  4  0  0  0  0
  7  8  1  0  0  0  0
  8  9  2  0  0  0  0
  8 10  1  0  0  0  0
  7 11  4  0  0  0  0
 11  2  4  0  0  0  0
M  END
> <CAS>
1899-24-7

> <NAME>
2-Furancarboxaldehyde, 5-bromo-

> <preferred_name>
5-Bromo-2-furaldehyde

> <iupac>
C5H3BrO2

> <SMILES>
O=Cc1ccc(Br)o1

> <Canonical_QSARr>
O=Cc1ccc(Br)o1

> <InChI_Code_QSARr>
InChI=1S/C5H3BrO2/c6-5-2-1-4(3-7)8-5/h1-3H

> <InChI Key_QSARr>
WJTFHWXMITZNHS-UHFFFAOYSA-N

> <Salt_Solvent>
?

> <WS Temperature>
20

> <WS Reference>
BEILSTEIN

> <dsstox_substance_id>
DTXSID40344910

> <LogMolar>
-1.544

$$$$
1910-42-5
  -INDIGO-01081615412D

 28 29  0  0  0  0  0  0  0  0999 V2000
    3.2001   -0.0000    0.0000 N   0  0  0  1  0  0  0  0  0  0  0  0
    4.7999    0.0000    0.0000 C   0  0  0  0  0  0  0  0  0  0  0  0
    6.4000    0.0000    0.0000 H   0  0  0  0  0  0  0  0  0  0  0  0
    5.6000    1.3856    0.0000 H   0  0  0  0  0  0  0  0  0  0  0  0
    5.6000   -1.3856    0.0000 H   0  0  0  0  0  0  0  0  0  0  0  0
    2.4000    1.3856    0.0000 C   0  0  0  0  0  0  0  0  0  0  0  0
    3.2001    2.7713    0.0000 H   0  0  0  0  0  0  0  0  0  0  0  0
    0.8000    1.3856    0.0000 C   0  0  0  0  0  0  0  0  0  0  0  0
   -0.0001    2.7713    0.0000 H   0  0  0  0  0  0  0  0  0  0  0  0
   -0.0001   -0.0000    0.0000 C   0  0  0  0  0  0  0  0  0  0  0  0
   -1.5999   -0.0000    0.0000 C   0  0  0  0  0  0  0  0  0  0  0  0
   -2.4000    1.3856    0.0000 C   0  0  0  0  0  0  0  0  0  0  0  0
   -1.5999    2.7713    0.0000 H   0  0  0  0  0  0  0  0  0  0  0  0
   -4.0000    1.3856    0.0000 C   0  0  0  0  0  0  0  0  0  0  0  0
   -4.8001    2.7713    0.0000 H   0  0  0  0  0  0  0  0  0  0  0  0
   -4.8001   -0.0000    0.0000 N   0  0  0  1  0  0  0  0  0  0  0  0
   -6.3999   -0.0000    0.0000 C   0  0  0  0  0  0  0  0  0  0  0  0
   -8.0000   -0.0000    0.0000 H   0  0  0  0  0  0  0  0  0  0  0  0
   -7.2000    1.3856    0.0000 H   0  0  0  0  0  0  0  0  0  0  0  0
   -7.2000   -1.3856    0.0000 H   0  0  0  0  0  0  0  0  0  0  0  0
   -4.0000   -1.3856    0.0000 C   0  0  0  0  0  0  0  0  0  0  0  0
   -4.8001   -2.7713    0.0000 H   0  0  0  0  0  0  0  0  0  0  0  0
   -2.4000   -1.3856    0.0000 C   0  0  0  0  0  0  0  0  0  0  0  0
   -1.5999   -2.7713    0.0000 H   0  0  0  0  0  0  0  0  0  0  0  0
    0.8000   -1.3856    0.0000 C   0  0  0  0  0  0  0  0  0  0  0  0
   -0.0001   -2.7713    0.0000 H   0  0  0  0  0  0  0  0  0  0  0  0
    2.4000   -1.3856    0.0000 C   0  0  0  0  0  0  0  0  0  0  0  0
    3.2001   -2.7713    0.0000 H   0  0  0  0  0  0  0  0  0  0  0  0
  1  2  1  0  0  0  0
  2  3  1  0  0  0  0
  2  4  1  0  0  0  0
  2  5  1  0  0  0  0
  1  6  4  0  0  0  0
  6  7  1  0  0  0  0
  6  8  4  0  0  0  0
  8  9  1  0  0  0  0
  8 10  4  0  0  0  0
 10 11  1  0  0  0  0
 11 12  4  0  0  0  0
 12 13  1  0  0  0  0
 12 14  4  0  0  0  0
 14 15  1  0  0  0  0
 14 16  4  0  0  0  0
 16 17  1  0  0  0  0
 17 18  1  0  0  0  0
 17 19  1  0  0  0  0
 17 20  1  0  0  0  0
 16 21  4  0  0  0  0
 21 22  1  0  0  0  0
 21 23  4  0  0  0  0
 23 11  4  0  0  0  0
 23 24  1  0  0  0  0
 10 25  4  0  0  0  0
 25 26  1  0  0  0  0
 25 27  4  0  0  0  0
 27  1  4  0  0  0  0
 27 28  1  0  0  0  0
M  CHG  2   1   1  16   1
M  END
> <CAS>
1910-42-5

> <NAME>
Paraquat dichloride

> <preferred_name>
Paraquat dichloride

> <iupac>
1,1'-dimethyl-4,4'-bipyridinium dichloride

> <SMILES>
[Cl-].[Cl-].C[n+]1ccc(cc1)-c1cc[n+](C)cc1

> <Canonical_QSARr>
C[n+]1ccc(cc1)-c1cc[n+](C)cc1

> <InChI_Code_QSARr>
InChI=1S/C12H14N2/c1-13-7-3-11(4-8-13)12-5-9-14(2)10-6-12/h3-10H,1-2H3/q+2

> <InChI Key_QSARr>
INFDPOAKFNIJBF-UHFFFAOYSA-N

> <Salt_Solvent>
[Cl-].[Cl-]

> <WS Temperature>
20

> <WS Reference>
TOMLIN,C (2003)

> <dsstox_substance_id>
DTXSID7024243

> <LogMolar>
0.4349

$$$$
1912-25-0
  -INDIGO-01081615412D

 34 34  0  0  0  0  0  0  0  0999 V2000
    5.5426    1.6000    0.0000 N   0  0  0  1  0  0  0  0  0  0  0  0
    4.1568    2.4001    0.0000 C   0  0  0  0  0  0  0  0  0  0  0  0
    4.1568    4.0000    0.0000 Cl  0  0  0  0  0  0  0  0  0  0  0  0
    2.7713    1.6000    0.0000 N   0  0  0  1  0  0  0  0  0  0  0  0
    2.7713    0.0000    0.0000 C   0  0  0  0  0  0  0  0  0  0  0  0
    1.3857   -0.8001    0.0000 N   0  0  0  0  0  0  0  0  0  0  0  0
   -0.0000    0.0000    0.0000 C   0  0  0  0  0  0  0  0  0  0  0  0
   -1.3855    0.8000    0.0000 C   0  0  0  0  0  0  0  0  0  0  0  0
   -2.7713    1.6000    0.0000 H   0  0  0  0  0  0  0  0  0  0  0  0
   -2.7713    0.0000    0.0000 H   0  0  0  0  0  0  0  0  0  0  0  0
   -1.3855    2.3999    0.0000 H   0  0  0  0  0  0  0  0  0  0  0  0
   -0.8001   -1.3856    0.0000 C   0  0  0  0  0  0  0  0  0  0  0  0
   -1.5999   -2.7713    0.0000 H   0  0  0  0  0  0  0  0  0  0  0  0
   -2.4000   -1.3856    0.0000 H   0  0  0  0  0  0  0  0  0  0  0  0
   -0.0000   -2.7713    0.0000 H   0  0  0  0  0  0  0  0  0  0  0  0
    0.8001    1.3857    0.0000 H   0  0  0  0  0  0  0  0  0  0  0  0
    1.3857   -2.4000    0.0000 H   0  0  0  0  0  0  0  0  0  0  0  0
    4.1568   -0.8001    0.0000 N   0  0  0  1  0  0  0  0  0  0  0  0
    5.5426    0.0000    0.0000 C   0  0  0  0  0  0  0  0  0  0  0  0
    6.9283   -0.7999    0.0000 N   0  0  0  0  0  0  0  0  0  0  0  0
    8.3138    0.0000    0.0000 C   0  0  0  0  0  0  0  0  0  0  0  0
    9.6996    0.8000    0.0000 C   0  0  0  0  0  0  0  0  0  0  0  0
   11.0851    1.6000    0.0000 H   0  0  0  0  0  0  0  0  0  0  0  0
   11.0851    0.0000    0.0000 H   0  0  0  0  0  0  0  0  0  0  0  0
    9.6996    2.4001    0.0000 H   0  0  0  0  0  0  0  0  0  0  0  0
    9.1139   -1.3856    0.0000 H   0  0  0  0  0  0  0  0  0  0  0  0
    7.5138    1.3857    0.0000 H   0  0  0  0  0  0  0  0  0  0  0  0
    6.9283   -2.4000    0.0000 C   0  0  0  0  0  0  0  0  0  0  0  0
    6.9283   -3.9999    0.0000 C   0  0  0  0  0  0  0  0  0  0  0  0
    6.9283   -5.6000    0.0000 H   0  0  0  0  0  0  0  0  0  0  0  0
    8.3138   -4.8000    0.0000 H   0  0  0  0  0  0  0  0  0  0  0  0
    5.5426   -4.8000    0.0000 H   0  0  0  0  0  0  0  0  0  0  0  0
    5.3282   -2.4000    0.0000 H   0  0  0  0  0  0  0  0  0  0  0  0
    8.5282   -2.4000    0.0000 H   0  0  0  0  0  0  0  0  0  0  0  0
  1  2  4  0  0  0  0
  2  3  1  0  0  0  0
  2  4  4  0  0  0  0
  4  5  4  0  0  0  0
  5  6  1  0  0  0  0
  6  7  1  0  0  0  0
  7  8  1  0  0  0  0
  8  9  1  0  0  0  0
  8 10  1  0  0  0  0
  8 11  1  0  0  0  0
  7 12  1  0  0  0  0
 12 13  1  0  0  0  0
 12 14  1  0  0  0  0
 12 15  1  0  0  0  0
  7 16  1  0  0  0  0
  6 17  1  0  0  0  0
  5 18  4  0  0  0  0
 18 19  4  0  0  0  0
 19  1  4  0  0  0  0
 19 20  1  0  0  0  0
 20 21  1  0  0  0  0
 21 22  1  0  0  0  0
 22 23  1  0  0  0  0
 22 24  1  0  0  0  0
 22 25  1  0  0  0  0
 21 26  1  0  0  0  0
 21 27  1  0  0  0  0
 20 28  1  0  0  0  0
 28 29  1  0  0  0  0
 29 30  1  0  0  0  0
 29 31  1  0  0  0  0
 29 32  1  0  0  0  0
 28 33  1  0  0  0  0
 28 34  1  0  0  0  0
M  END
> <CAS>
1912-25-0

> <NAME>
IPAZINE

> <preferred_name>
Ipazine

> <iupac>
6-chloro-N,N-diethyl-N'-(propan-2-yl)-1,3,5-triazine-2,4-diamine

> <SMILES>
CC(C)Nc1[n]c([n]c(Cl)[n]1)N(CC)CC

> <Canonical_QSARr>
CC(C)Nc1[n]c([n]c(Cl)[n]1)N(CC)CC

> <InChI_Code_QSARr>
InChI=1S/C10H18ClN5/c1-5-16(6-2)10-14-8(11)13-9(15-10)12-7(3)4/h7H,5-6H2,1-4H3,(H,12,13,14,15)

> <InChI Key_QSARr>
OWYWGLHRNBIFJP-UHFFFAOYSA-N

> <Salt_Solvent>
?

> <WS Temperature>
21

> <WS Reference>
YALKOWSKY,SH & DANNENFELSER,RM (1992)

> <dsstox_substance_id>
DTXSID8042056

> <LogMolar>
-3.7849

$$$$
1918-00-9
  -INDIGO-01081615412D

 19 19  0  0  0  0  0  0  0  0999 V2000
    0.0000    0.0000    0.0000 C   0  0  0  0  0  0  0  0  0  0  0  0
   -0.8000   -1.3856    0.0000 C   0  0  0  0  0  0  0  0  0  0  0  0
   -2.4000   -1.3856    0.0000 Cl  0  0  0  0  0  0  0  0  0  0  0  0
    0.0000   -2.7713    0.0000 C   0  0  0  0  0  0  0  0  0  0  0  0
   -0.8000   -4.1569    0.0000 H   0  0  0  0  0  0  0  0  0  0  0  0
    1.6000   -2.7713    0.0000 C   0  0  0  0  0  0  0  0  0  0  0  0
    2.4000   -4.1569    0.0000 H   0  0  0  0  0  0  0  0  0  0  0  0
    2.4000   -1.3856    0.0000 C   0  0  0  0  0  0  0  0  0  0  0  0
    4.0001   -1.3856    0.0000 Cl  0  0  0  0  0  0  0  0  0  0  0  0
    1.6000    0.0000    0.0000 C   0  0  0  0  0  0  0  0  0  0  0  0
    2.4000    1.3856    0.0000 O   0  0  0  0  0  0  0  0  0  0  0  0
    4.0001    1.3856    0.0000 C   0  0  0  0  0  0  0  0  0  0  0  0
    4.8000    2.7713    0.0000 H   0  0  0  0  0  0  0  0  0  0  0  0
    5.6000    1.3856    0.0000 H   0  0  0  0  0  0  0  0  0  0  0  0
    3.2000    2.7713    0.0000 H   0  0  0  0  0  0  0  0  0  0  0  0
   -0.8000    1.3856    0.0000 C   0  0  0  0  0  0  0  0  0  0  0  0
   -2.4000    1.3856    0.0000 O   0  0  0  0  0  0  0  0  0  0  0  0
   -3.2000    2.7713    0.0000 H   0  0  0  0  0  0  0  0  0  0  0  0
    0.0000    2.7713    0.0000 O   0  0  0  0  0  0  0  0  0  0  0  0
  1  2  4  0  0  0  0
  2  3  1  0  0  0  0
  2  4  4  0  0  0  0
  4  5  1  0  0  0  0
  4  6  4  0  0  0  0
  6  7  1  0  0  0  0
  6  8  4  0  0  0  0
  8  9  1  0  0  0  0
  8 10  4  0  0  0  0
 10  1  4  0  0  0  0
 10 11  1  0  0  0  0
 11 12  1  0  0  0  0
 12 13  1  0  0  0  0
 12 14  1  0  0  0  0
 12 15  1  0  0  0  0
  1 16  1  0  0  0  0
 16 17  1  0  0  0  0
 17 18  1  0  0  0  0
 16 19  2  0  0  0  0
M  END
> <CAS>
1918-00-9

> <NAME>
DICAMBA

> <preferred_name>
Dicamba

> <iupac>
3,6-dichloro-2-methoxybenzoic acid

> <SMILES>
COc1c(C(O)=O)c(Cl)ccc1Cl

> <Canonical_QSARr>
COc1c(C(O)=O)c(Cl)ccc1Cl

> <InChI_Code_QSARr>
InChI=1S/C8H6Cl2O3/c1-13-7-5(10)3-2-4(9)6(7)8(11)12/h2-3H,1H3,(H,11,12)

> <InChI Key_QSARr>
IWEDIXLBFLAXBO-UHFFFAOYSA-N

> <Salt_Solvent>
?

> <WS Temperature>
25

> <WS Reference>
USDA PESTICIDE PROPERTIES DATABASE

> <dsstox_substance_id>
DTXSID4024018

> <LogMolar>
-1.55795

$$$$
1918-13-4
  -INDIGO-01081615412D

 16 16  0  0  0  0  0  0  0  0999 V2000
   -0.0000   -0.0000    0.0000 C   0  0  0  0  0  0  0  0  0  0  0  0
    1.6000    0.0000    0.0000 C   0  0  0  0  0  0  0  0  0  0  0  0
    2.4001   -1.3856    0.0000 N   0  0  0  0  0  0  0  0  0  0  0  0
    4.0000   -1.3856    0.0000 H   0  0  0  0  0  0  0  0  0  0  0  0
    1.6000   -2.7713    0.0000 H   0  0  0  0  0  0  0  0  0  0  0  0
    2.4001    1.3856    0.0000 S   0  0  0  0  0  0  0  0  0  0  0  0
   -0.8000    1.3856    0.0000 C   0  0  0  0  0  0  0  0  0  0  0  0
   -0.0000    2.7713    0.0000 Cl  0  0  0  0  0  0  0  0  0  0  0  0
   -2.4000    1.3856    0.0000 C   0  0  0  0  0  0  0  0  0  0  0  0
   -3.2001    2.7713    0.0000 H   0  0  0  0  0  0  0  0  0  0  0  0
   -3.2001   -0.0000    0.0000 C   0  0  0  0  0  0  0  0  0  0  0  0
   -4.8000   -0.0000    0.0000 H   0  0  0  0  0  0  0  0  0  0  0  0
   -2.4000   -1.3856    0.0000 C   0  0  0  0  0  0  0  0  0  0  0  0
   -3.2001   -2.7713    0.0000 H   0  0  0  0  0  0  0  0  0  0  0  0
   -0.8000   -1.3856    0.0000 C   0  0  0  0  0  0  0  0  0  0  0  0
   -0.0000   -2.7713    0.0000 Cl  0  0  0  0  0  0  0  0  0  0  0  0
  1  2  1  0  0  0  0
  2  3  1  0  0  0  0
  3  4  1  0  0  0  0
  3  5  1  0  0  0  0
  2  6  2  0  0  0  0
  1  7  4  0  0  0  0
  7  8  1  0  0  0  0
  7  9  4  0  0  0  0
  9 10  1  0  0  0  0
  9 11  4  0  0  0  0
 11 12  1  0  0  0  0
 11 13  4  0  0  0  0
 13 14  1  0  0  0  0
 13 15  4  0  0  0  0
 15  1  4  0  0  0  0
 15 16  1  0  0  0  0
M  END
> <CAS>
1918-13-4

> <NAME>
CHLORTHIAMID

> <preferred_name>
Chlorthiamid

> <iupac>
2,6-dichlorobenzenecarbothioamide

> <SMILES>
NC(=S)c1c(Cl)cccc1Cl

> <Canonical_QSARr>
NC(=S)c1c(Cl)cccc1Cl

> <InChI_Code_QSARr>
InChI=1S/C7H5Cl2NS/c8-4-2-1-3-5(9)6(4)7(10)11/h1-3H,(H2,10,11)

> <InChI Key_QSARr>
KGKGSIUWJCAFPX-UHFFFAOYSA-N

> <Salt_Solvent>
?

> <WS Temperature>
21

> <WS Reference>
YALKOWSKY,SH & DANNENFELSER,RM (1992)

> <dsstox_substance_id>
DTXSID4041783

> <LogMolar>
-2.3363

$$$$
1928-39-8
  -INDIGO-01081615412D

 25 25  0  0  0  0  0  0  0  0999 V2000
   -1.3856    2.4000    0.0000 Cl  0  0  0  0  0  0  0  0  0  0  0  0
   -1.3856    0.8000    0.0000 C   0  0  0  0  0  0  0  0  0  0  0  0
   -2.7712   -0.0000    0.0000 C   0  0  0  0  0  0  0  0  0  0  0  0
   -4.1569    0.8000    0.0000 H   0  0  0  0  0  0  0  0  0  0  0  0
   -2.7712   -1.6000    0.0000 C   0  0  0  0  0  0  0  0  0  0  0  0
   -4.1569   -2.4000    0.0000 Cl  0  0  0  0  0  0  0  0  0  0  0  0
   -1.3856   -2.4000    0.0000 C   0  0  0  0  0  0  0  0  0  0  0  0
   -1.3856   -4.0000    0.0000 Cl  0  0  0  0  0  0  0  0  0  0  0  0
    0.0001   -1.6000    0.0000 C   0  0  0  0  0  0  0  0  0  0  0  0
    1.3856   -2.4000    0.0000 H   0  0  0  0  0  0  0  0  0  0  0  0
    0.0001   -0.0000    0.0000 C   0  0  0  0  0  0  0  0  0  0  0  0
    1.3856    0.8000    0.0000 O   0  0  0  0  0  0  0  0  0  0  0  0
    2.7714   -0.0000    0.0000 C   0  0  0  0  0  0  0  0  0  0  0  0
    4.1569   -0.8000    0.0000 C   0  0  0  0  0  0  0  0  0  0  0  0
    4.1569   -2.4000    0.0000 O   0  0  0  0  0  0  0  0  0  0  0  0
    5.5427   -0.0000    0.0000 O   0  0  0  0  0  0  0  0  0  0  0  0
    6.9282   -0.8000    0.0000 C   0  0  0  0  0  0  0  0  0  0  0  0
    8.3140   -1.6000    0.0000 C   0  0  0  0  0  0  0  0  0  0  0  0
    9.6995   -2.4000    0.0000 H   0  0  0  0  0  0  0  0  0  0  0  0
    9.6995   -0.8000    0.0000 H   0  0  0  0  0  0  0  0  0  0  0  0
    8.3140   -3.2000    0.0000 H   0  0  0  0  0  0  0  0  0  0  0  0
    7.7283    0.5856    0.0000 H   0  0  0  0  0  0  0  0  0  0  0  0
    6.1281   -2.1856    0.0000 H   0  0  0  0  0  0  0  0  0  0  0  0
    3.5712    1.3856    0.0000 H   0  0  0  0  0  0  0  0  0  0  0  0
    1.9713   -1.3856    0.0000 H   0  0  0  0  0  0  0  0  0  0  0  0
  1  2  1  0  0  0  0
  2  3  4  0  0  0  0
  3  4  1  0  0  0  0
  3  5  4  0  0  0  0
  5  6  1  0  0  0  0
  5  7  4  0  0  0  0
  7  8  1  0  0  0  0
  7  9  4  0  0  0  0
  9 10  1  0  0  0  0
  9 11  4  0  0  0  0
 11  2  4  0  0  0  0
 11 12  1  0  0  0  0
 12 13  1  0  0  0  0
 13 14  1  0  0  0  0
 14 15  2  0  0  0  0
 14 16  1  0  0  0  0
 16 17  1  0  0  0  0
 17 18  1  0  0  0  0
 18 19  1  0  0  0  0
 18 20  1  0  0  0  0
 18 21  1  0  0  0  0
 17 22  1  0  0  0  0
 17 23  1  0  0  0  0
 13 24  1  0  0  0  0
 13 25  1  0  0  0  0
M  END
> <CAS>
1928-39-8

> <NAME>
2,4,5-T, ETHYL ESTER

> <preferred_name>
Ethyl 2,4,5-trichlorophenoxyacetate

> <iupac>
ethyl 2-(2,4,5-trichlorophenoxy)acetate

> <SMILES>
CCOC(=O)COc1cc(Cl)c(Cl)cc1Cl

> <Canonical_QSARr>
CCOC(=O)COc1cc(Cl)c(Cl)cc1Cl

> <InChI_Code_QSARr>
InChI=1S/C10H9Cl3O3/c1-2-15-10(14)5-16-9-4-7(12)6(11)3-8(9)13/h3-4H,2,5H2,1H3

> <InChI Key_QSARr>
LVNNFHCEDQSWSC-UHFFFAOYSA-N

> <Salt_Solvent>
?

> <WS Temperature>
25

> <WS Reference>
PARIS,DF ET AL. (1984)

> <dsstox_substance_id>
DTXSID40172876

> <LogMolar>
-4.8493

$$$$
1929-77-7
  -INDIGO-01081615412D

 34 33  0  0  0  0  0  0  0  0999 V2000
   -1.3855   -0.7999    0.0000 C   0  0  0  0  0  0  0  0  0  0  0  0
   -2.7713    0.0000    0.0000 S   0  0  0  0  0  0  0  0  0  0  0  0
   -4.1568   -0.7999    0.0000 C   0  0  0  0  0  0  0  0  0  0  0  0
   -5.5426   -1.6001    0.0000 C   0  0  0  0  0  0  0  0  0  0  0  0
   -6.9281   -2.4000    0.0000 C   0  0  0  0  0  0  0  0  0  0  0  0
   -8.3138   -3.2000    0.0000 H   0  0  0  0  0  0  0  0  0  0  0  0
   -8.3138   -1.6001    0.0000 H   0  0  0  0  0  0  0  0  0  0  0  0
   -6.9281   -4.0000    0.0000 H   0  0  0  0  0  0  0  0  0  0  0  0
   -6.3426   -0.2144    0.0000 H   0  0  0  0  0  0  0  0  0  0  0  0
   -4.7425   -2.9856    0.0000 H   0  0  0  0  0  0  0  0  0  0  0  0
   -4.9569    0.5856    0.0000 H   0  0  0  0  0  0  0  0  0  0  0  0
   -3.3570   -2.1857    0.0000 H   0  0  0  0  0  0  0  0  0  0  0  0
   -1.3855   -2.4000    0.0000 O   0  0  0  0  0  0  0  0  0  0  0  0
    0.0000    0.0000    0.0000 N   0  0  0  0  0  0  0  0  0  0  0  0
    0.0000    1.6000    0.0000 C   0  0  0  0  0  0  0  0  0  0  0  0
    0.0000    3.1999    0.0000 C   0  0  0  0  0  0  0  0  0  0  0  0
    0.0000    4.8000    0.0000 C   0  0  0  0  0  0  0  0  0  0  0  0
    0.0000    6.4000    0.0000 H   0  0  0  0  0  0  0  0  0  0  0  0
   -1.3855    5.6000    0.0000 H   0  0  0  0  0  0  0  0  0  0  0  0
    1.3857    5.6000    0.0000 H   0  0  0  0  0  0  0  0  0  0  0  0
   -1.5999    3.1999    0.0000 H   0  0  0  0  0  0  0  0  0  0  0  0
    1.5999    3.1999    0.0000 H   0  0  0  0  0  0  0  0  0  0  0  0
   -1.5999    1.6000    0.0000 H   0  0  0  0  0  0  0  0  0  0  0  0
    1.5999    1.6000    0.0000 H   0  0  0  0  0  0  0  0  0  0  0  0
    1.3857   -0.7999    0.0000 C   0  0  0  0  0  0  0  0  0  0  0  0
    2.7713   -1.6001    0.0000 C   0  0  0  0  0  0  0  0  0  0  0  0
    4.1570   -2.4000    0.0000 C   0  0  0  0  0  0  0  0  0  0  0  0
    5.5426   -3.2000    0.0000 H   0  0  0  0  0  0  0  0  0  0  0  0
    4.1570   -4.0000    0.0000 H   0  0  0  0  0  0  0  0  0  0  0  0
    5.5426   -1.6001    0.0000 H   0  0  0  0  0  0  0  0  0  0  0  0
    1.9712   -2.9856    0.0000 H   0  0  0  0  0  0  0  0  0  0  0  0
    3.5714   -0.2144    0.0000 H   0  0  0  0  0  0  0  0  0  0  0  0
    0.5857   -2.1857    0.0000 H   0  0  0  0  0  0  0  0  0  0  0  0
    2.1856    0.5856    0.0000 H   0  0  0  0  0  0  0  0  0  0  0  0
  1  2  1  0  0  0  0
  2  3  1  0  0  0  0
  3  4  1  0  0  0  0
  4  5  1  0  0  0  0
  5  6  1  0  0  0  0
  5  7  1  0  0  0  0
  5  8  1  0  0  0  0
  4  9  1  0  0  0  0
  4 10  1  0  0  0  0
  3 11  1  0  0  0  0
  3 12  1  0  0  0  0
  1 13  2  0  0  0  0
  1 14  1  0  0  0  0
 14 15  1  0  0  0  0
 15 16  1  0  0  0  0
 16 17  1  0  0  0  0
 17 18  1  0  0  0  0
 17 19  1  0  0  0  0
 17 20  1  0  0  0  0
 16 21  1  0  0  0  0
 16 22  1  0  0  0  0
 15 23  1  0  0  0  0
 15 24  1  0  0  0  0
 14 25  1  0  0  0  0
 25 26  1  0  0  0  0
 26 27  1  0  0  0  0
 27 28  1  0  0  0  0
 27 29  1  0  0  0  0
 27 30  1  0  0  0  0
 26 31  1  0  0  0  0
 26 32  1  0  0  0  0
 25 33  1  0  0  0  0
 25 34  1  0  0  0  0
M  END
> <CAS>
1929-77-7

> <NAME>
VERNOLATE

> <preferred_name>
Vernolate

> <iupac>
S-propyl dipropylcarbamothioate

> <SMILES>
CCCSC(=O)N(CCC)CCC

> <Canonical_QSARr>
CCCSC(=O)N(CCC)CCC

> <InChI_Code_QSARr>
InChI=1S/C10H21NOS/c1-4-7-11(8-5-2)10(12)13-9-6-3/h4-9H2,1-3H3

> <InChI Key_QSARr>
OKUGPJPKMAEJOE-UHFFFAOYSA-N

> <Salt_Solvent>
?

> <WS Temperature>
20

> <WS Reference>
TOMLIN,C (1997)

> <dsstox_substance_id>
DTXSID7024376

> <LogMolar>
-3.354

$$$$
1943-16-4
  -INDIGO-01081615412D

 11 10  0  0  0  0  0  0  0  0999 V2000
    0.0000   -1.6000    0.0000 Cl  0  0  0  0  0  0  0  0  0  0  0  0
    0.0000    0.0000    0.0000 C   0  0  0  0  0  0  0  0  0  0  0  0
   -1.6000    0.0000    0.0000 N   0  0  0  0  0  0  0  0  0  0  0  0
   -2.4000   -1.3856    0.0000 O   0  0  0  0  0  0  0  0  0  0  0  0
   -2.4000    1.3856    0.0000 O   0  0  0  0  0  0  0  0  0  0  0  0
    0.0000    1.6000    0.0000 N   0  0  0  0  0  0  0  0  0  0  0  0
    1.3857    2.4000    0.0000 O   0  0  0  0  0  0  0  0  0  0  0  0
   -1.3857    2.4000    0.0000 O   0  0  0  0  0  0  0  0  0  0  0  0
    1.6000    0.0000    0.0000 N   0  0  0  0  0  0  0  0  0  0  0  0
    2.4000   -1.3856    0.0000 O   0  0  0  0  0  0  0  0  0  0  0  0
    2.4000    1.3856    0.0000 O   0  0  0  0  0  0  0  0  0  0  0  0
  1  2  1  0  0  0  0
  2  3  1  0  0  0  0
  3  4  2  0  0  0  0
  3  5  1  0  0  0  0
  2  6  1  0  0  0  0
  6  7  2  0  0  0  0
  6  8  1  0  0  0  0
  2  9  1  0  0  0  0
  9 10  2  0  0  0  0
  9 11  1  0  0  0  0
M  CHG  6   3   1   5  -1   6   1   8  -1   9   1  11  -1
M  END
> <CAS>
1943-16-4

> <NAME>
Chlorotrinitromethane

> <preferred_name>
Methane, chlorotrinitro-

> <iupac>
chloro-trinitromethane

> <SMILES>
[O-][N+](=O)C(Cl)([N+]([O-])=O)[N+]([O-])=O

> <Canonical_QSARr>
[O-][N+](=O)C(Cl)([N+]([O-])=O)[N+]([O-])=O

> <InChI_Code_QSARr>
InChI=1S/CClN3O6/c2-1(3(6)7,4(8)9)5(10)11

> <InChI Key_QSARr>
GNZCDDDPGSFZFG-UHFFFAOYSA-N

> <Salt_Solvent>
?

> <WS Temperature>
20

> <WS Reference>
YALKOWSKY,SH & DANNENFELSER,RM (1992)

> <dsstox_substance_id>
DTXSID90173050

> <LogMolar>
-1.9259

$$$$
1956-07-6
  -INDIGO-01081615412D

 29 29  0  0  0  0  0  0  0  0999 V2000
   -3.9999    1.3857    0.0000 O   0  0  0  0  0  0  0  0  0  0  0  0
   -5.6001    1.3857    0.0000 C   0  0  0  0  0  0  0  0  0  0  0  0
   -6.4001    2.7713    0.0000 C   0  0  0  0  0  0  0  0  0  0  0  0
   -5.6001    4.1569    0.0000 H   0  0  0  0  0  0  0  0  0  0  0  0
   -8.0000    2.7713    0.0000 C   0  0  0  0  0  0  0  0  0  0  0  0
   -8.8001    4.1569    0.0000 H   0  0  0  0  0  0  0  0  0  0  0  0
   -8.8001    1.3857    0.0000 C   0  0  0  0  0  0  0  0  0  0  0  0
  -10.3999    1.3857    0.0000 N   0  0  0  0  0  0  0  0  0  0  0  0
  -11.2000    2.7713    0.0000 O   0  0  0  0  0  0  0  0  0  0  0  0
  -11.2000    0.0000    0.0000 O   0  0  0  0  0  0  0  0  0  0  0  0
   -8.0000    0.0000    0.0000 C   0  0  0  0  0  0  0  0  0  0  0  0
   -8.8001   -1.3857    0.0000 H   0  0  0  0  0  0  0  0  0  0  0  0
   -6.4001    0.0000    0.0000 C   0  0  0  0  0  0  0  0  0  0  0  0
   -5.6001   -1.3857    0.0000 H   0  0  0  0  0  0  0  0  0  0  0  0
   -3.1999    0.0000    0.0000 C   0  0  0  0  0  0  0  0  0  0  0  0
   -1.6000    0.0000    0.0000 C   0  0  0  0  0  0  0  0  0  0  0  0
    0.0001    0.0000    0.0000 C   0  0  0  0  0  0  0  0  0  0  0  0
    1.6000    0.0000    0.0000 C   0  0  0  0  0  0  0  0  0  0  0  0
    3.1999    0.0000    0.0000 C   0  0  0  0  0  0  0  0  0  0  0  0
    4.8000    0.0000    0.0000 H   0  0  0  0  0  0  0  0  0  0  0  0
    3.9999   -1.3857    0.0000 H   0  0  0  0  0  0  0  0  0  0  0  0
    3.9999    1.3857    0.0000 H   0  0  0  0  0  0  0  0  0  0  0  0
    1.6000   -1.6000    0.0000 H   0  0  0  0  0  0  0  0  0  0  0  0
    1.6000    1.6000    0.0000 H   0  0  0  0  0  0  0  0  0  0  0  0
    0.0001   -1.6000    0.0000 H   0  0  0  0  0  0  0  0  0  0  0  0
    0.0001    1.6000    0.0000 H   0  0  0  0  0  0  0  0  0  0  0  0
   -1.6000   -1.6000    0.0000 H   0  0  0  0  0  0  0  0  0  0  0  0
   -1.6000    1.6000    0.0000 H   0  0  0  0  0  0  0  0  0  0  0  0
   -3.9999   -1.3857    0.0000 O   0  0  0  0  0  0  0  0  0  0  0  0
  1  2  1  0  0  0  0
  2  3  4  0  0  0  0
  3  4  1  0  0  0  0
  3  5  4  0  0  0  0
  5  6  1  0  0  0  0
  5  7  4  0  0  0  0
  7  8  1  0  0  0  0
  8  9  2  0  0  0  0
  8 10  1  0  0  0  0
  7 11  4  0  0  0  0
 11 12  1  0  0  0  0
 11 13  4  0  0  0  0
 13  2  4  0  0  0  0
 13 14  1  0  0  0  0
  1 15  1  0  0  0  0
 15 16  1  0  0  0  0
 16 17  1  0  0  0  0
 17 18  1  0  0  0  0
 18 19  1  0  0  0  0
 19 20  1  0  0  0  0
 19 21  1  0  0  0  0
 19 22  1  0  0  0  0
 18 23  1  0  0  0  0
 18 24  1  0  0  0  0
 17 25  1  0  0  0  0
 17 26  1  0  0  0  0
 16 27  1  0  0  0  0
 16 28  1  0  0  0  0
 15 29  2  0  0  0  0
M  CHG  2   8   1  10  -1
M  END
> <CAS>
1956-07-6

> <NAME>
Pentanoic acid, 4-nitrophenyl ester

> <preferred_name>
4-Nitrophenyl valerate

> <iupac>
C11H13NO4

> <SMILES>
CCCCC(=O)Oc1ccc(cc1)[N+]([O-])=O

> <Canonical_QSARr>
CCCCC(=O)Oc1ccc(cc1)[N+]([O-])=O

> <InChI_Code_QSARr>
InChI=1S/C11H13NO4/c1-2-3-4-11(13)16-10-7-5-9(6-8-10)12(14)15/h5-8H,2-4H2,1H3

> <InChI Key_QSARr>
RJQXEHRFVKJLJO-UHFFFAOYSA-N

> <Salt_Solvent>
?

> <WS Temperature>
25

> <WS Reference>
BEILSTEIN

> <dsstox_substance_id>
DTXSID10336362

> <LogMolar>
-4.3945

$$$$
1966-58-1
  -INDIGO-01081615412D

 23 23  0  0  0  0  0  0  0  0999 V2000
    3.9999   -1.3856    0.0000 C   0  0  0  0  0  0  0  0  0  0  0  0
    5.6000   -1.3856    0.0000 N   0  0  0  0  0  0  0  0  0  0  0  0
    6.4000   -2.7713    0.0000 C   0  0  0  0  0  0  0  0  0  0  0  0
    7.2000   -4.1569    0.0000 H   0  0  0  0  0  0  0  0  0  0  0  0
    8.0000   -2.7713    0.0000 H   0  0  0  0  0  0  0  0  0  0  0  0
    5.6000   -4.1569    0.0000 H   0  0  0  0  0  0  0  0  0  0  0  0
    6.4000    0.0000    0.0000 H   0  0  0  0  0  0  0  0  0  0  0  0
    3.1999    0.0000    0.0000 O   0  0  0  0  0  0  0  0  0  0  0  0
    1.5999    0.0000    0.0000 C   0  0  0  0  0  0  0  0  0  0  0  0
    0.0001    0.0000    0.0000 C   0  0  0  0  0  0  0  0  0  0  0  0
   -0.7999    1.3856    0.0000 C   0  0  0  0  0  0  0  0  0  0  0  0
    0.0001    2.7713    0.0000 H   0  0  0  0  0  0  0  0  0  0  0  0
   -2.4000    1.3856    0.0000 C   0  0  0  0  0  0  0  0  0  0  0  0
   -3.2000    2.7713    0.0000 H   0  0  0  0  0  0  0  0  0  0  0  0
   -3.2000    0.0000    0.0000 C   0  0  0  0  0  0  0  0  0  0  0  0
   -4.8000    0.0000    0.0000 Cl  0  0  0  0  0  0  0  0  0  0  0  0
   -2.4000   -1.3856    0.0000 C   0  0  0  0  0  0  0  0  0  0  0  0
   -3.2000   -2.7713    0.0000 Cl  0  0  0  0  0  0  0  0  0  0  0  0
   -0.7999   -1.3856    0.0000 C   0  0  0  0  0  0  0  0  0  0  0  0
    0.0001   -2.7713    0.0000 H   0  0  0  0  0  0  0  0  0  0  0  0
    1.6001   -1.6000    0.0000 H   0  0  0  0  0  0  0  0  0  0  0  0
    1.5999    1.6000    0.0000 H   0  0  0  0  0  0  0  0  0  0  0  0
    3.1999   -2.7713    0.0000 O   0  0  0  0  0  0  0  0  0  0  0  0
  1  2  1  0  0  0  0
  2  3  1  0  0  0  0
  3  4  1  0  0  0  0
  3  5  1  0  0  0  0
  3  6  1  0  0  0  0
  2  7  1  0  0  0  0
  1  8  1  0  0  0  0
  8  9  1  0  0  0  0
  9 10  1  0  0  0  0
 10 11  4  0  0  0  0
 11 12  1  0  0  0  0
 11 13  4  0  0  0  0
 13 14  1  0  0  0  0
 13 15  4  0  0  0  0
 15 16  1  0  0  0  0
 15 17  4  0  0  0  0
 17 18  1  0  0  0  0
 17 19  4  0  0  0  0
 19 10  4  0  0  0  0
 19 20  1  0  0  0  0
  9 21  1  0  0  0  0
  9 22  1  0  0  0  0
  1 23  2  0  0  0  0
M  END
> <CAS>
1966-58-1

> <NAME>
3,4-DICHLOROBENZYL METHYLCARBAMATE

> <preferred_name>
Dichlormate

> <iupac>
3,4-dichlorobenzyl methylcarbamate

> <SMILES>
CNC(=O)OCc1cc(Cl)c(Cl)cc1

> <Canonical_QSARr>
CNC(=O)OCc1cc(Cl)c(Cl)cc1

> <InChI_Code_QSARr>
InChI=1S/C9H9Cl2NO2/c1-12-9(13)14-5-6-2-3-7(10)8(11)4-6/h2-4H,5H2,1H3,(H,12,13)

> <InChI Key_QSARr>
DSVOTYIOPGIVPP-UHFFFAOYSA-N

> <Salt_Solvent>
?

> <WS Temperature>
25

> <WS Reference>
WEBER,JB (1972)

> <dsstox_substance_id>
DTXSID5041853

> <LogMolar>
-3.1389

$$$$
1982-47-4
  -INDIGO-01081615412D

 35 36  0  0  0  0  0  0  0  0999 V2000
   -1.6000    0.0001    0.0000 C   0  0  0  0  0  0  0  0  0  0  0  0
   -2.4001    1.3857    0.0000 N   0  0  0  0  0  0  0  0  0  0  0  0
   -3.9999    1.3857    0.0000 C   0  0  0  0  0  0  0  0  0  0  0  0
   -4.8001    2.7713    0.0000 C   0  0  0  0  0  0  0  0  0  0  0  0
   -3.9999    4.1570    0.0000 H   0  0  0  0  0  0  0  0  0  0  0  0
   -6.4001    2.7713    0.0000 C   0  0  0  0  0  0  0  0  0  0  0  0
   -7.2000    4.1570    0.0000 H   0  0  0  0  0  0  0  0  0  0  0  0
   -7.2000    1.3857    0.0000 C   0  0  0  0  0  0  0  0  0  0  0  0
   -8.8000    1.3857    0.0000 O   0  0  0  0  0  0  0  0  0  0  0  0
  -10.1857    2.1856    0.0000 C   0  0  0  0  0  0  0  0  0  0  0  0
  -10.1857    3.7856    0.0000 C   0  0  0  0  0  0  0  0  0  0  0  0
   -8.8000    4.5856    0.0000 H   0  0  0  0  0  0  0  0  0  0  0  0
  -11.5712    4.5856    0.0000 C   0  0  0  0  0  0  0  0  0  0  0  0
  -11.5712    6.1856    0.0000 H   0  0  0  0  0  0  0  0  0  0  0  0
  -12.9569    3.7856    0.0000 C   0  0  0  0  0  0  0  0  0  0  0  0
  -14.3426    4.5856    0.0000 Cl  0  0  0  0  0  0  0  0  0  0  0  0
  -12.9569    2.1856    0.0000 C   0  0  0  0  0  0  0  0  0  0  0  0
  -14.3426    1.3857    0.0000 H   0  0  0  0  0  0  0  0  0  0  0  0
  -11.5712    1.3857    0.0000 C   0  0  0  0  0  0  0  0  0  0  0  0
  -11.5712   -0.2144    0.0000 H   0  0  0  0  0  0  0  0  0  0  0  0
   -6.4001    0.0001    0.0000 C   0  0  0  0  0  0  0  0  0  0  0  0
   -7.2000   -1.3857    0.0000 H   0  0  0  0  0  0  0  0  0  0  0  0
   -4.8001    0.0001    0.0000 C   0  0  0  0  0  0  0  0  0  0  0  0
   -3.9999   -1.3857    0.0000 H   0  0  0  0  0  0  0  0  0  0  0  0
   -1.6000    2.7713    0.0000 H   0  0  0  0  0  0  0  0  0  0  0  0
    0.0001    0.0001    0.0000 N   0  0  0  0  0  0  0  0  0  0  0  0
    0.8000   -1.3857    0.0000 C   0  0  0  0  0  0  0  0  0  0  0  0
    1.6001   -2.7713    0.0000 H   0  0  0  0  0  0  0  0  0  0  0  0
    2.4000   -1.3857    0.0000 H   0  0  0  0  0  0  0  0  0  0  0  0
    0.0001   -2.7713    0.0000 H   0  0  0  0  0  0  0  0  0  0  0  0
    0.8000    1.3857    0.0000 C   0  0  0  0  0  0  0  0  0  0  0  0
    1.6001    2.7713    0.0000 H   0  0  0  0  0  0  0  0  0  0  0  0
    2.4000    1.3857    0.0000 H   0  0  0  0  0  0  0  0  0  0  0  0
    0.0001    2.7713    0.0000 H   0  0  0  0  0  0  0  0  0  0  0  0
   -2.4001   -1.3857    0.0000 O   0  0  0  0  0  0  0  0  0  0  0  0
  1  2  1  0  0  0  0
  2  3  1  0  0  0  0
  3  4  4  0  0  0  0
  4  5  1  0  0  0  0
  4  6  4  0  0  0  0
  6  7  1  0  0  0  0
  6  8  4  0  0  0  0
  8  9  1  0  0  0  0
  9 10  1  0  0  0  0
 10 11  4  0  0  0  0
 11 12  1  0  0  0  0
 11 13  4  0  0  0  0
 13 14  1  0  0  0  0
 13 15  4  0  0  0  0
 15 16  1  0  0  0  0
 15 17  4  0  0  0  0
 17 18  1  0  0  0  0
 17 19  4  0  0  0  0
 19 10  4  0  0  0  0
 19 20  1  0  0  0  0
  8 21  4  0  0  0  0
 21 22  1  0  0  0  0
 21 23  4  0  0  0  0
 23  3  4  0  0  0  0
 23 24  1  0  0  0  0
  2 25  1  0  0  0  0
  1 26  1  0  0  0  0
 26 27  1  0  0  0  0
 27 28  1  0  0  0  0
 27 29  1  0  0  0  0
 27 30  1  0  0  0  0
 26 31  1  0  0  0  0
 31 32  1  0  0  0  0
 31 33  1  0  0  0  0
 31 34  1  0  0  0  0
  1 35  2  0  0  0  0
M  END
> <CAS>
1982-47-4

> <NAME>
CHLOROXURON

> <preferred_name>
Chloroxuron

> <iupac>
3-[4-(4-chlorophenoxy)phenyl]-1,1-dimethylurea

> <SMILES>
CN(C)C(=O)Nc1ccc(cc1)Oc1ccc(Cl)cc1

> <Canonical_QSARr>
CN(C)C(=O)Nc1ccc(cc1)Oc1ccc(Cl)cc1

> <InChI_Code_QSARr>
InChI=1S/C15H15ClN2O2/c1-18(2)15(19)17-12-5-9-14(10-6-12)20-13-7-3-11(16)4-8-13/h3-10H,1-2H3,(H,17,19)

> <InChI Key_QSARr>
IVUXTESCPZUGJC-UHFFFAOYSA-N

> <Salt_Solvent>
?

> <WS Temperature>
20

> <WS Reference>
YALKOWSKY,SH & DANNENFELSER,RM (1992)

> <dsstox_substance_id>
DTXSID7040287

> <LogMolar>
-4.8953

$$$$
2008-58-4
  -INDIGO-01081615412D

 16 16  0  0  0  0  0  0  0  0999 V2000
    0.8000    1.3856    0.0000 C   0  0  0  0  0  0  0  0  0  0  0  0
    0.0000    0.0000    0.0000 C   0  0  0  0  0  0  0  0  0  0  0  0
   -1.6000   -0.0000    0.0000 C   0  0  0  0  0  0  0  0  0  0  0  0
   -2.4001   -1.3856    0.0000 N   0  0  0  0  0  0  0  0  0  0  0  0
   -4.0000   -1.3856    0.0000 H   0  0  0  0  0  0  0  0  0  0  0  0
   -1.6000   -2.7713    0.0000 H   0  0  0  0  0  0  0  0  0  0  0  0
   -2.4001    1.3856    0.0000 O   0  0  0  0  0  0  0  0  0  0  0  0
    0.8000   -1.3856    0.0000 C   0  0  0  0  0  0  0  0  0  0  0  0
    0.0000   -2.7713    0.0000 Cl  0  0  0  0  0  0  0  0  0  0  0  0
    2.4000   -1.3856    0.0000 C   0  0  0  0  0  0  0  0  0  0  0  0
    3.2001   -2.7713    0.0000 H   0  0  0  0  0  0  0  0  0  0  0  0
    3.2001    0.0000    0.0000 C   0  0  0  0  0  0  0  0  0  0  0  0
    4.8000    0.0000    0.0000 H   0  0  0  0  0  0  0  0  0  0  0  0
    2.4000    1.3856    0.0000 C   0  0  0  0  0  0  0  0  0  0  0  0
    3.2001    2.7713    0.0000 H   0  0  0  0  0  0  0  0  0  0  0  0
    0.0000    2.7713    0.0000 Cl  0  0  0  0  0  0  0  0  0  0  0  0
  1  2  4  0  0  0  0
  2  3  1  0  0  0  0
  3  4  1  0  0  0  0
  4  5  1  0  0  0  0
  4  6  1  0  0  0  0
  3  7  2  0  0  0  0
  2  8  4  0  0  0  0
  8  9  1  0  0  0  0
  8 10  4  0  0  0  0
 10 11  1  0  0  0  0
 10 12  4  0  0  0  0
 12 13  1  0  0  0  0
 12 14  4  0  0  0  0
 14  1  4  0  0  0  0
 14 15  1  0  0  0  0
  1 16  1  0  0  0  0
M  END
> <CAS>
2008-58-4

> <NAME>
2,6-DICHLOROBENZAMIDE

> <preferred_name>
2,6-Dichlorobenzamide

> <iupac>
2,6-dichlorobenzamide

> <SMILES>
NC(=O)c1c(Cl)cccc1Cl

> <Canonical_QSARr>
NC(=O)c1c(Cl)cccc1Cl

> <InChI_Code_QSARr>
InChI=1S/C7H5Cl2NO/c8-4-2-1-3-5(9)6(4)7(10)11/h1-3H,(H2,10,11)

> <InChI Key_QSARr>
JHSPCUHPSIUQRB-UHFFFAOYSA-N

> <Salt_Solvent>
?

> <WS Temperature>
23

> <WS Reference>
GEYER,H ET AL. (1981)

> <dsstox_substance_id>
DTXSID7022170

> <LogMolar>
-1.8427

$$$$
2022-85-7
  -INDIGO-01081615412D

 13 13  0  0  0  0  0  0  0  0999 V2000
   -2.4000    1.3856    0.0000 C   0  0  0  0  0  0  0  0  0  0  0  0
   -3.2000   -0.0000    0.0000 N   0  0  0  0  0  0  0  0  0  0  0  0
   -4.8000   -0.0000    0.0000 H   0  0  0  0  0  0  0  0  0  0  0  0
   -2.4000   -1.3856    0.0000 C   0  0  0  0  0  0  0  0  0  0  0  0
   -3.2000   -2.7713    0.0000 O   0  0  0  0  0  0  0  0  0  0  0  0
   -0.8000   -1.3856    0.0000 N   0  0  0  0  0  0  0  0  0  0  0  0
    0.0000    0.0000    0.0000 C   0  0  0  0  0  0  0  0  0  0  0  0
    1.6000    0.0000    0.0000 N   0  0  0  0  0  0  0  0  0  0  0  0
    2.4000   -1.3856    0.0000 H   0  0  0  0  0  0  0  0  0  0  0  0
    2.4000    1.3856    0.0000 H   0  0  0  0  0  0  0  0  0  0  0  0
   -0.8000    1.3856    0.0000 C   0  0  0  0  0  0  0  0  0  0  0  0
    0.0000    2.7713    0.0000 F   0  0  0  0  0  0  0  0  0  0  0  0
   -3.2000    2.7713    0.0000 H   0  0  0  0  0  0  0  0  0  0  0  0
  1  2  1  0  0  0  0
  2  3  1  0  0  0  0
  2  4  1  0  0  0  0
  4  5  2  0  0  0  0
  4  6  1  0  0  0  0
  6  7  2  0  0  0  0
  7  8  1  0  0  0  0
  8  9  1  0  0  0  0
  8 10  1  0  0  0  0
  7 11  1  0  0  0  0
 11  1  2  0  0  0  0
 11 12  1  0  0  0  0
  1 13  1  0  0  0  0
M  END
> <CAS>
2022-85-7

> <NAME>
FLUCYTOSINE

> <preferred_name>
Flucytosine

> <iupac>
4-amino-5-fluoropyrimidin-2(1H)-one

> <SMILES>
NC1=NC(=O)NC=C1F

> <Canonical_QSARr>
NC1=NC(=O)NC=C1F

> <InChI_Code_QSARr>
InChI=1S/C4H4FN3O/c5-2-1-7-4(9)8-3(2)6/h1H,(H3,6,7,8,9)

> <InChI Key_QSARr>
XRECTZIEBJDKEO-UHFFFAOYSA-N

> <Salt_Solvent>
?

> <WS Temperature>
25

> <WS Reference>
MERCK INDEX (1996)

> <dsstox_substance_id>
DTXSID3023059

> <LogMolar>
-0.9348

$$$$
2043-43-8
  -INDIGO-01081615412D

 13 12  0  0  0  0  0  0  0  0999 V2000
   -0.0000    1.6000    0.0000 O   0  0  0  0  0  0  0  0  0  0  0  0
   -0.0000   -0.0000    0.0000 C   0  0  0  0  0  0  0  0  0  0  0  0
   -1.6000   -0.0000    0.0000 C   0  0  0  0  0  0  0  0  0  0  0  0
   -2.4000   -1.3856    0.0000 N   0  0  0  0  0  0  0  0  0  0  0  0
   -4.0000   -1.3856    0.0000 H   0  0  0  0  0  0  0  0  0  0  0  0
   -1.6000   -2.7713    0.0000 H   0  0  0  0  0  0  0  0  0  0  0  0
   -2.4000    1.3856    0.0000 O   0  0  0  0  0  0  0  0  0  0  0  0
    1.6000   -0.0000    0.0000 C   0  0  0  0  0  0  0  0  0  0  0  0
    3.2000   -0.0000    0.0000 H   0  0  0  0  0  0  0  0  0  0  0  0
    2.4000   -1.3856    0.0000 H   0  0  0  0  0  0  0  0  0  0  0  0
    2.4000    1.3856    0.0000 H   0  0  0  0  0  0  0  0  0  0  0  0
   -0.0000   -1.6000    0.0000 H   0  0  0  0  0  0  0  0  0  0  0  0
   -1.3857    2.4000    0.0000 H   0  0  0  0  0  0  0  0  0  0  0  0
  1  2  1  0  0  0  0
  2  3  1  0  0  0  0
  3  4  1  0  0  0  0
  4  5  1  0  0  0  0
  4  6  1  0  0  0  0
  3  7  2  0  0  0  0
  2  8  1  0  0  0  0
  8  9  1  0  0  0  0
  8 10  1  0  0  0  0
  8 11  1  0  0  0  0
  2 12  1  0  0  0  0
  1 13  1  0  0  0  0
M  END
> <CAS>
2043-43-8

> <NAME>
Propanamide, 2-hydroxy-

> <preferred_name>
(R)-(+)-Lactamide

> <iupac>
C3H7NO2

> <SMILES>
C[C@@H](O)C(N)=O

> <Canonical_QSARr>
CC(O)C(N)=O

> <InChI_Code_QSARr>
InChI=1S/C3H7NO2/c1-2(5)3(4)6/h2,5H,1H3,(H2,4,6)

> <InChI Key_QSARr>
SXQFCVDSOLSHOQ-UHFFFAOYSA-N

> <Salt_Solvent>
?

> <WS Temperature>
25

> <WS Reference>
YALKOWSKY,SH & DANNENFELSER,RM (1992)

> <dsstox_substance_id>
DTXSID10364145

> <LogMolar>
0.9435

$$$$
2050-23-9
  -INDIGO-01081615412D

 38 37  0  0  0  0  0  0  0  0999 V2000
   -5.6001    1.3856    0.0000 O   0  0  0  0  0  0  0  0  0  0  0  0
   -7.2000    1.3856    0.0000 C   0  0  0  0  0  0  0  0  0  0  0  0
   -8.8000    1.3856    0.0000 C   0  0  0  0  0  0  0  0  0  0  0  0
  -10.4000    1.3856    0.0000 H   0  0  0  0  0  0  0  0  0  0  0  0
   -9.5998    2.7712    0.0000 H   0  0  0  0  0  0  0  0  0  0  0  0
   -9.5998   -0.0000    0.0000 H   0  0  0  0  0  0  0  0  0  0  0  0
   -7.2000    2.9856    0.0000 H   0  0  0  0  0  0  0  0  0  0  0  0
   -7.2000   -0.2144    0.0000 H   0  0  0  0  0  0  0  0  0  0  0  0
   -4.7999    0.0000    0.0000 C   0  0  0  0  0  0  0  0  0  0  0  0
   -3.1999    0.0000    0.0000 C   0  0  0  0  0  0  0  0  0  0  0  0
   -1.6000    0.0000    0.0000 C   0  0  0  0  0  0  0  0  0  0  0  0
    0.0000    0.0000    0.0000 C   0  0  0  0  0  0  0  0  0  0  0  0
    1.6000    0.0000    0.0000 C   0  0  0  0  0  0  0  0  0  0  0  0
    3.2000    0.0000    0.0000 C   0  0  0  0  0  0  0  0  0  0  0  0
    4.7999    0.0000    0.0000 C   0  0  0  0  0  0  0  0  0  0  0  0
    6.3999    0.0000    0.0000 C   0  0  0  0  0  0  0  0  0  0  0  0
    7.2001    1.3856    0.0000 O   0  0  0  0  0  0  0  0  0  0  0  0
    7.2001   -1.3856    0.0000 O   0  0  0  0  0  0  0  0  0  0  0  0
    8.8000   -1.3856    0.0000 C   0  0  0  0  0  0  0  0  0  0  0  0
   10.4000   -1.3856    0.0000 C   0  0  0  0  0  0  0  0  0  0  0  0
   12.0000   -1.3856    0.0000 H   0  0  0  0  0  0  0  0  0  0  0  0
   11.1998   -2.7712    0.0000 H   0  0  0  0  0  0  0  0  0  0  0  0
   11.1998    0.0000    0.0000 H   0  0  0  0  0  0  0  0  0  0  0  0
    8.8000   -2.9856    0.0000 H   0  0  0  0  0  0  0  0  0  0  0  0
    8.8000    0.2143    0.0000 H   0  0  0  0  0  0  0  0  0  0  0  0
    4.7999   -1.6000    0.0000 H   0  0  0  0  0  0  0  0  0  0  0  0
    4.7999    1.6000    0.0000 H   0  0  0  0  0  0  0  0  0  0  0  0
    3.2000   -1.6000    0.0000 H   0  0  0  0  0  0  0  0  0  0  0  0
    3.2000    1.6000    0.0000 H   0  0  0  0  0  0  0  0  0  0  0  0
    1.6000   -1.6000    0.0000 H   0  0  0  0  0  0  0  0  0  0  0  0
    1.6000    1.6000    0.0000 H   0  0  0  0  0  0  0  0  0  0  0  0
    0.0000   -1.6000    0.0000 H   0  0  0  0  0  0  0  0  0  0  0  0
    0.0000    1.6000    0.0000 H   0  0  0  0  0  0  0  0  0  0  0  0
   -1.6000   -1.6000    0.0000 H   0  0  0  0  0  0  0  0  0  0  0  0
   -1.6000    1.6000    0.0000 H   0  0  0  0  0  0  0  0  0  0  0  0
   -3.1999    1.6000    0.0000 H   0  0  0  0  0  0  0  0  0  0  0  0
   -3.1999   -1.6000    0.0000 H   0  0  0  0  0  0  0  0  0  0  0  0
   -5.6001   -1.3856    0.0000 O   0  0  0  0  0  0  0  0  0  0  0  0
  1  2  1  0  0  0  0
  2  3  1  0  0  0  0
  3  4  1  0  0  0  0
  3  5  1  0  0  0  0
  3  6  1  0  0  0  0
  2  7  1  0  0  0  0
  2  8  1  0  0  0  0
  1  9  1  0  0  0  0
  9 10  1  0  0  0  0
 10 11  1  0  0  0  0
 11 12  1  0  0  0  0
 12 13  1  0  0  0  0
 13 14  1  0  0  0  0
 14 15  1  0  0  0  0
 15 16  1  0  0  0  0
 16 17  2  0  0  0  0
 16 18  1  0  0  0  0
 18 19  1  0  0  0  0
 19 20  1  0  0  0  0
 20 21  1  0  0  0  0
 20 22  1  0  0  0  0
 20 23  1  0  0  0  0
 19 24  1  0  0  0  0
 19 25  1  0  0  0  0
 15 26  1  0  0  0  0
 15 27  1  0  0  0  0
 14 28  1  0  0  0  0
 14 29  1  0  0  0  0
 13 30  1  0  0  0  0
 13 31  1  0  0  0  0
 12 32  1  0  0  0  0
 12 33  1  0  0  0  0
 11 34  1  0  0  0  0
 11 35  1  0  0  0  0
 10 36  1  0  0  0  0
 10 37  1  0  0  0  0
  9 38  2  0  0  0  0
M  END
> <CAS>
2050-23-9

> <NAME>
DIETHYL SUBERATE

> <preferred_name>
Diethyl suberate

> <iupac>
Diethyl octanedioate

> <SMILES>
CCOC(=O)CCCCCCC(=O)OCC

> <Canonical_QSARr>
CCOC(=O)CCCCCCC(=O)OCC

> <InChI_Code_QSARr>
InChI=1S/C12H22O4/c1-3-15-11(13)9-7-5-6-8-10-12(14)16-4-2/h3-10H2,1-2H3

> <InChI Key_QSARr>
PEUGOJXLBSIJQS-UHFFFAOYSA-N

> <Salt_Solvent>
?

> <WS Temperature>
25

> <WS Reference>
SUZUKI,T (1991)

> <dsstox_substance_id>
DTXSID90174486

> <LogMolar>
-2.5304

$$$$
2050-74-0
  -INDIGO-01081615412D

 18 19  0  0  0  0  0  0  0  0999 V2000
    0.0001   -0.0000    0.0000 C   0  0  0  0  0  0  0  0  0  0  0  0
   -1.3856    0.8000    0.0000 C   0  0  0  0  0  0  0  0  0  0  0  0
   -1.3856    2.4000    0.0000 Cl  0  0  0  0  0  0  0  0  0  0  0  0
   -2.7712   -0.0000    0.0000 C   0  0  0  0  0  0  0  0  0  0  0  0
   -4.1569    0.8000    0.0000 H   0  0  0  0  0  0  0  0  0  0  0  0
   -2.7712   -1.6000    0.0000 C   0  0  0  0  0  0  0  0  0  0  0  0
   -4.1569   -2.4000    0.0000 H   0  0  0  0  0  0  0  0  0  0  0  0
   -1.3856   -2.4000    0.0000 C   0  0  0  0  0  0  0  0  0  0  0  0
   -1.3856   -4.0000    0.0000 H   0  0  0  0  0  0  0  0  0  0  0  0
    0.0001   -1.6000    0.0000 C   0  0  0  0  0  0  0  0  0  0  0  0
    1.3856   -2.4000    0.0000 C   0  0  0  0  0  0  0  0  0  0  0  0
    1.3856   -4.0000    0.0000 H   0  0  0  0  0  0  0  0  0  0  0  0
    2.7713   -1.6000    0.0000 C   0  0  0  0  0  0  0  0  0  0  0  0
    4.1569   -2.4000    0.0000 H   0  0  0  0  0  0  0  0  0  0  0  0
    2.7713   -0.0000    0.0000 C   0  0  0  0  0  0  0  0  0  0  0  0
    4.1569    0.8000    0.0000 H   0  0  0  0  0  0  0  0  0  0  0  0
    1.3856    0.8000    0.0000 C   0  0  0  0  0  0  0  0  0  0  0  0
    1.3856    2.4000    0.0000 Cl  0  0  0  0  0  0  0  0  0  0  0  0
  1  2  4  0  0  0  0
  2  3  1  0  0  0  0
  2  4  4  0  0  0  0
  4  5  1  0  0  0  0
  4  6  4  0  0  0  0
  6  7  1  0  0  0  0
  6  8  4  0  0  0  0
  8  9  1  0  0  0  0
  8 10  4  0  0  0  0
 10  1  4  0  0  0  0
 10 11  4  0  0  0  0
 11 12  1  0  0  0  0
 11 13  4  0  0  0  0
 13 14  1  0  0  0  0
 13 15  4  0  0  0  0
 15 16  1  0  0  0  0
 15 17  4  0  0  0  0
 17  1  4  0  0  0  0
 17 18  1  0  0  0  0
M  END
> <CAS>
2050-74-0

> <NAME>
1,8-DICHLORONAPHTHALENE

> <preferred_name>
Naphthalene, 1,8-dichloro-

> <iupac>
1,8-DICHLORONAPHTHALENE

> <SMILES>
Clc1cccc2cccc(Cl)c12

> <Canonical_QSARr>
Clc1cccc2cccc(Cl)c12

> <InChI_Code_QSARr>
InChI=1S/C10H6Cl2/c11-8-5-1-3-7-4-2-6-9(12)10(7)8/h1-6H

> <InChI Key_QSARr>
ADRYPAGQXFMVFP-UHFFFAOYSA-N

> <Salt_Solvent>
?

> <WS Temperature>
25

> <WS Reference>
OPPERHUIZEN,A ET AL. (1985)

> <dsstox_substance_id>
DTXSID0062139

> <LogMolar>
-5.7963

$$$$
2051-61-8
  -INDIGO-01081615412D

 22 23  0  0  0  0  0  0  0  0999 V2000
    0.0001    0.0000    0.0000 C   0  0  0  0  0  0  0  0  0  0  0  0
    0.8001   -1.3856    0.0000 C   0  0  0  0  0  0  0  0  0  0  0  0
    0.0001   -2.7713    0.0000 H   0  0  0  0  0  0  0  0  0  0  0  0
    2.4000   -1.3856    0.0000 C   0  0  0  0  0  0  0  0  0  0  0  0
    3.2000   -2.7713    0.0000 H   0  0  0  0  0  0  0  0  0  0  0  0
    3.2000    0.0000    0.0000 C   0  0  0  0  0  0  0  0  0  0  0  0
    4.8000    0.0000    0.0000 H   0  0  0  0  0  0  0  0  0  0  0  0
    2.4000    1.3856    0.0000 C   0  0  0  0  0  0  0  0  0  0  0  0
    3.2000    2.7713    0.0000 Cl  0  0  0  0  0  0  0  0  0  0  0  0
    0.8001    1.3856    0.0000 C   0  0  0  0  0  0  0  0  0  0  0  0
    0.0001    2.7713    0.0000 H   0  0  0  0  0  0  0  0  0  0  0  0
   -1.6001   -0.0000    0.0000 C   0  0  0  0  0  0  0  0  0  0  0  0
   -2.4001    1.3856    0.0000 C   0  0  0  0  0  0  0  0  0  0  0  0
   -1.6001    2.7713    0.0000 H   0  0  0  0  0  0  0  0  0  0  0  0
   -4.0000    1.3856    0.0000 C   0  0  0  0  0  0  0  0  0  0  0  0
   -4.8000    2.7713    0.0000 H   0  0  0  0  0  0  0  0  0  0  0  0
   -4.8000   -0.0000    0.0000 C   0  0  0  0  0  0  0  0  0  0  0  0
   -6.4000   -0.0000    0.0000 H   0  0  0  0  0  0  0  0  0  0  0  0
   -4.0000   -1.3856    0.0000 C   0  0  0  0  0  0  0  0  0  0  0  0
   -4.8000   -2.7713    0.0000 H   0  0  0  0  0  0  0  0  0  0  0  0
   -2.4001   -1.3856    0.0000 C   0  0  0  0  0  0  0  0  0  0  0  0
   -1.6001   -2.7713    0.0000 H   0  0  0  0  0  0  0  0  0  0  0  0
  1  2  4  0  0  0  0
  2  3  1  0  0  0  0
  2  4  4  0  0  0  0
  4  5  1  0  0  0  0
  4  6  4  0  0  0  0
  6  7  1  0  0  0  0
  6  8  4  0  0  0  0
  8  9  1  0  0  0  0
  8 10  4  0  0  0  0
 10  1  4  0  0  0  0
 10 11  1  0  0  0  0
  1 12  1  0  0  0  0
 12 13  4  0  0  0  0
 13 14  1  0  0  0  0
 13 15  4  0  0  0  0
 15 16  1  0  0  0  0
 15 17  4  0  0  0  0
 17 18  1  0  0  0  0
 17 19  4  0  0  0  0
 19 20  1  0  0  0  0
 19 21  4  0  0  0  0
 21 12  4  0  0  0  0
 21 22  1  0  0  0  0
M  END
> <CAS>
2051-61-8

> <NAME>
3-CHLOROBIPHENYL

> <preferred_name>
3-Chlorobiphenyl

> <iupac>
3-chlorobiphenyl

> <SMILES>
Clc1cc(ccc1)-c1ccccc1

> <Canonical_QSARr>
Clc1cc(ccc1)-c1ccccc1

> <InChI_Code_QSARr>
InChI=1S/C12H9Cl/c13-12-8-4-7-11(9-12)10-5-2-1-3-6-10/h1-9H

> <InChI Key_QSARr>
NMWSKOLWZZWHPL-UHFFFAOYSA-N

> <Salt_Solvent>
?

> <WS Temperature>
25

> <WS Reference>
YALKOWSKY,SH & DANNENFELSER,RM (1992)

> <dsstox_substance_id>
DTXSID1040299

> <LogMolar>
-4.7158

$$$$
2076-53-1, 2076-57-5
  -INDIGO-01081615412D

 20 19  0  0  0  0  0  0  0  0999 V2000
   -0.8000    1.3857    0.0000 O   0  0  0  0  0  0  0  0  0  0  0  0
   -2.4000    1.3857    0.0000 C   0  0  0  0  0  0  0  0  0  0  0  0
   -3.2000    2.7713    0.0000 H   0  0  0  0  0  0  0  0  0  0  0  0
   -4.0000    1.3857    0.0000 H   0  0  0  0  0  0  0  0  0  0  0  0
   -1.6000    2.7713    0.0000 H   0  0  0  0  0  0  0  0  0  0  0  0
    0.0000    0.0000    0.0000 C   0  0  0  0  0  0  0  0  0  0  0  0
   -1.3856   -0.8000    0.0000 C   0  0  0  0  0  0  0  0  0  0  0  0
   -2.7713   -1.6000    0.0000 H   0  0  0  0  0  0  0  0  0  0  0  0
   -1.3856   -2.4000    0.0000 H   0  0  0  0  0  0  0  0  0  0  0  0
   -2.7713    0.0000    0.0000 H   0  0  0  0  0  0  0  0  0  0  0  0
    1.3857    0.8000    0.0000 C   0  0  0  0  0  0  0  0  0  0  0  0
    2.6112    1.8285    0.0000 C   0  0  0  0  0  0  0  0  0  0  0  0
    2.3335    3.4042    0.0000 O   0  0  0  0  0  0  0  0  0  0  0  0
    4.1148    1.2812    0.0000 O   0  0  0  0  0  0  0  0  0  0  0  0
    5.3405    2.3097    0.0000 H   0  0  0  0  0  0  0  0  0  0  0  0
    2.4141   -0.4257    0.0000 N   0  0  0  0  0  0  0  0  0  0  0  0
    3.9898   -0.1479    0.0000 H   0  0  0  0  0  0  0  0  0  0  0  0
    2.1362   -2.0014    0.0000 H   0  0  0  0  0  0  0  0  0  0  0  0
    0.3572    2.0256    0.0000 H   0  0  0  0  0  0  0  0  0  0  0  0
    0.8000   -1.3857    0.0000 H   0  0  0  0  0  0  0  0  0  0  0  0
  1  2  1  0  0  0  0
  2  3  1  0  0  0  0
  2  4  1  0  0  0  0
  2  5  1  0  0  0  0
  1  6  1  0  0  0  0
  6  7  1  0  0  0  0
  7  8  1  0  0  0  0
  7  9  1  0  0  0  0
  7 10  1  0  0  0  0
  6 11  1  0  0  0  0
 11 12  1  0  0  0  0
 12 13  2  0  0  0  0
 12 14  1  0  0  0  0
 14 15  1  0  0  0  0
 11 16  1  0  0  0  0
 16 17  1  0  0  0  0
 16 18  1  0  0  0  0
 11 19  1  0  0  0  0
  6 20  1  0  0  0  0
M  END
> <CAS>
2076-53-1, 2076-57-5

> <NAME>
DL-Allothreonine, O-methyl-, DL-Threonine, O-methyl-

> <preferred_name>
O-Methyl threonine

> <iupac>
(2S,3R)-2-amino-3-methoxybutanoic acid

> <SMILES>
C[C@@H](OC)[C@H](N)C(O)=O

> <Canonical_QSARr>
CC(OC)C(N)C(O)=O

> <InChI_Code_QSARr>
InChI=1S/C5H11NO3/c1-3(9-2)4(6)5(7)8/h3-4H,6H2,1-2H3,(H,7,8)

> <InChI Key_QSARr>
FYCWLJLGIAUCCL-UHFFFAOYSA-N

> <Salt_Solvent>
?

> <WS Temperature>
25

> <WS Reference>
BEILSTEIN

> <dsstox_substance_id>
DTXSID20195962

> <LogMolar>
0.4916

$$$$
2131-59-1
  -INDIGO-01081615412D

 14 14  0  0  0  0  0  0  0  0999 V2000
   -3.2000    2.7713    0.0000 Br  0  0  0  0  0  0  0  0  0  0  0  0
   -2.3999    1.3856    0.0000 C   0  0  0  0  0  0  0  0  0  0  0  0
   -3.2000   -0.0000    0.0000 C   0  0  0  0  0  0  0  0  0  0  0  0
   -4.8000   -0.0000    0.0000 H   0  0  0  0  0  0  0  0  0  0  0  0
   -2.3999   -1.3856    0.0000 C   0  0  0  0  0  0  0  0  0  0  0  0
   -3.2000   -2.7713    0.0000 H   0  0  0  0  0  0  0  0  0  0  0  0
   -0.7999   -1.3856    0.0000 C   0  0  0  0  0  0  0  0  0  0  0  0
    0.0000   -2.7713    0.0000 H   0  0  0  0  0  0  0  0  0  0  0  0
    0.0000    0.0000    0.0000 C   0  0  0  0  0  0  0  0  0  0  0  0
    1.6000    0.0000    0.0000 N   0  0  0  0  0  0  0  0  0  0  0  0
    2.4001    1.3856    0.0000 C   0  0  0  0  0  0  0  0  0  0  0  0
    3.2000    2.7713    0.0000 S   0  0  0  0  0  0  0  0  0  0  0  0
   -0.7999    1.3856    0.0000 C   0  0  0  0  0  0  0  0  0  0  0  0
    0.0000    2.7713    0.0000 H   0  0  0  0  0  0  0  0  0  0  0  0
  1  2  1  0  0  0  0
  2  3  4  0  0  0  0
  3  4  1  0  0  0  0
  3  5  4  0  0  0  0
  5  6  1  0  0  0  0
  5  7  4  0  0  0  0
  7  8  1  0  0  0  0
  7  9  4  0  0  0  0
  9 10  1  0  0  0  0
 10 11  2  0  0  0  0
 11 12  2  0  0  0  0
  9 13  4  0  0  0  0
 13  2  4  0  0  0  0
 13 14  1  0  0  0  0
M  END
> <CAS>
2131-59-1

> <NAME>
BENZENE, 1-BROMO-3-ISOTHIOCYANATO-

> <preferred_name>
Isothiocyanic acid, m-bromophenyl ester

> <iupac>
1-bromo-3-isothiocyanatobenzene

> <SMILES>
S=C=Nc1cccc(Br)c1

> <Canonical_QSARr>
S=C=Nc1cccc(Br)c1

> <InChI_Code_QSARr>
InChI=1S/C7H4BrNS/c8-6-2-1-3-7(4-6)9-5-10/h1-4H

> <InChI Key_QSARr>
ZMGMGHNOACSMQN-UHFFFAOYSA-N

> <Salt_Solvent>
?

> <WS Temperature>
25

> <WS Reference>
YALKOWSKY,SH & DANNENFELSER,RM (1992)

> <dsstox_substance_id>
DTXSID30175578

> <LogMolar>
-4.0851

$$$$
2152-44-5
  -INDIGO-01081615412D

 71 74  0  0  0  0  0  0  0  0999 V2000
   -0.0001   -0.0001    0.0000 C   0  0  0  0  0  0  0  0  0  0  0  0
   -1.4618   -0.6507    0.0000 C   0  0  0  0  0  0  0  0  0  0  0  0
   -3.0141   -1.0378    0.0000 H   0  0  0  0  0  0  0  0  0  0  0  0
   -2.4023   -1.9452    0.0000 H   0  0  0  0  0  0  0  0  0  0  0  0
   -2.5731    0.5002    0.0000 H   0  0  0  0  0  0  0  0  0  0  0  0
   -0.0001   -1.6001    0.0000 C   0  0  0  0  0  0  0  0  0  0  0  0
   -1.5999   -1.6001    0.0000 H   0  0  0  0  0  0  0  0  0  0  0  0
   -0.5473   -3.1035    0.0000 H   0  0  0  0  0  0  0  0  0  0  0  0
    1.3856   -2.4000    0.0000 C   0  0  0  0  0  0  0  0  0  0  0  0
    0.3571   -3.6257    0.0000 O   0  0  0  0  0  0  0  0  0  0  0  0
    0.9043   -5.1293    0.0000 H   0  0  0  0  0  0  0  0  0  0  0  0
    1.6635   -3.9757    0.0000 H   0  0  0  0  0  0  0  0  0  0  0  0
    2.7712   -1.6001    0.0000 C   0  0  0  0  0  0  0  0  0  0  0  0
    2.2628   -2.4331    0.0000 F   0  0  0  0  0  0  0  0  0  0  0  0
    2.7712   -0.0001    0.0000 C   0  0  0  0  0  0  0  0  0  0  0  0
    4.1569    0.8000    0.0000 C   0  0  0  0  0  0  0  0  0  0  0  0
    5.5425   -0.0001    0.0000 C   0  0  0  0  0  0  0  0  0  0  0  0
    5.5425   -1.6001    0.0000 C   0  0  0  0  0  0  0  0  0  0  0  0
    6.9282   -2.4000    0.0000 C   0  0  0  0  0  0  0  0  0  0  0  0
    8.3138   -1.6001    0.0000 H   0  0  0  0  0  0  0  0  0  0  0  0
    6.9282   -4.0000    0.0000 C   0  0  0  0  0  0  0  0  0  0  0  0
    8.3138   -4.8000    0.0000 O   0  0  0  0  0  0  0  0  0  0  0  0
    5.5425   -4.8000    0.0000 C   0  0  0  0  0  0  0  0  0  0  0  0
    5.5425   -6.4000    0.0000 H   0  0  0  0  0  0  0  0  0  0  0  0
    4.1569   -4.0000    0.0000 C   0  0  0  0  0  0  0  0  0  0  0  0
    3.1284   -5.2257    0.0000 H   0  0  0  0  0  0  0  0  0  0  0  0
    4.1569   -2.4000    0.0000 C   0  0  0  0  0  0  0  0  0  0  0  0
    3.5556   -2.6189    0.0000 C   0  0  0  0  0  0  0  0  0  0  0  0
    2.7712   -3.1999    0.0000 H   0  0  0  0  0  0  0  0  0  0  0  0
    3.2777   -4.1946    0.0000 H   0  0  0  0  0  0  0  0  0  0  0  0
    4.9412   -3.4190    0.0000 H   0  0  0  0  0  0  0  0  0  0  0  0
    7.1182   -0.2778    0.0000 H   0  0  0  0  0  0  0  0  0  0  0  0
    6.0897    1.5035    0.0000 H   0  0  0  0  0  0  0  0  0  0  0  0
    5.1853    2.0257    0.0000 H   0  0  0  0  0  0  0  0  0  0  0  0
    3.6097    2.3034    0.0000 H   0  0  0  0  0  0  0  0  0  0  0  0
    2.7712    1.6000    0.0000 H   0  0  0  0  0  0  0  0  0  0  0  0
    1.3856    0.8000    0.0000 C   0  0  0  0  0  0  0  0  0  0  0  0
    2.0365    2.2617    0.0000 H   0  0  0  0  0  0  0  0  0  0  0  0
    1.0530    2.3651    0.0000 C   0  0  0  0  0  0  0  0  0  0  0  0
    2.4911    3.0664    0.0000 H   0  0  0  0  0  0  0  0  0  0  0  0
    1.0530    3.9650    0.0000 H   0  0  0  0  0  0  0  0  0  0  0  0
   -0.5382    2.5322    0.0000 C   0  0  0  0  0  0  0  0  0  0  0  0
   -0.2056    4.0973    0.0000 C   0  0  0  0  0  0  0  0  0  0  0  0
    0.1269    5.6624    0.0000 H   0  0  0  0  0  0  0  0  0  0  0  0
   -1.3946    5.1680    0.0000 H   0  0  0  0  0  0  0  0  0  0  0  0
    1.2072    4.8484    0.0000 H   0  0  0  0  0  0  0  0  0  0  0  0
   -2.0600    3.0266    0.0000 H   0  0  0  0  0  0  0  0  0  0  0  0
   -1.1891    1.0706    0.0000 C   0  0  0  0  0  0  0  0  0  0  0  0
   -2.1296   -0.2239    0.0000 O   0  0  0  0  0  0  0  0  0  0  0  0
   -3.7208   -0.0566    0.0000 C   0  0  0  0  0  0  0  0  0  0  0  0
   -4.8715   -1.1681    0.0000 C   0  0  0  0  0  0  0  0  0  0  0  0
   -6.0226   -2.2795    0.0000 C   0  0  0  0  0  0  0  0  0  0  0  0
   -7.1736   -3.3910    0.0000 C   0  0  0  0  0  0  0  0  0  0  0  0
   -8.3246   -4.5023    0.0000 C   0  0  0  0  0  0  0  0  0  0  0  0
   -9.4753   -5.6139    0.0000 H   0  0  0  0  0  0  0  0  0  0  0  0
   -9.8625   -4.0613    0.0000 H   0  0  0  0  0  0  0  0  0  0  0  0
   -7.9374   -6.0549    0.0000 H   0  0  0  0  0  0  0  0  0  0  0  0
   -8.2849   -2.2401    0.0000 H   0  0  0  0  0  0  0  0  0  0  0  0
   -6.0622   -4.5419    0.0000 H   0  0  0  0  0  0  0  0  0  0  0  0
   -7.1342   -1.1285    0.0000 H   0  0  0  0  0  0  0  0  0  0  0  0
   -4.9112   -3.4304    0.0000 H   0  0  0  0  0  0  0  0  0  0  0  0
   -5.9832   -0.0172    0.0000 H   0  0  0  0  0  0  0  0  0  0  0  0
   -3.7602   -2.3190    0.0000 H   0  0  0  0  0  0  0  0  0  0  0  0
   -4.6155    1.2700    0.0000 O   0  0  0  0  0  0  0  0  0  0  0  0
   -2.5748    1.8705    0.0000 C   0  0  0  0  0  0  0  0  0  0  0  0
   -3.1220    3.3741    0.0000 C   0  0  0  0  0  0  0  0  0  0  0  0
   -3.6692    4.8777    0.0000 O   0  0  0  0  0  0  0  0  0  0  0  0
   -5.2449    5.1555    0.0000 H   0  0  0  0  0  0  0  0  0  0  0  0
   -4.6255    2.8269    0.0000 H   0  0  0  0  0  0  0  0  0  0  0  0
   -1.6185    3.9213    0.0000 H   0  0  0  0  0  0  0  0  0  0  0  0
   -3.8004    0.8422    0.0000 O   0  0  0  0  0  0  0  0  0  0  0  0
  1  2  1  0  0  0  0
  2  3  1  0  0  0  0
  2  4  1  0  0  0  0
  2  5  1  0  0  0  0
  1  6  1  0  0  0  0
  6  7  1  0  0  0  0
  6  8  1  0  0  0  0
  6  9  1  0  0  0  0
  9 10  1  0  0  0  0
 10 11  1  0  0  0  0
  9 12  1  0  0  0  0
  9 13  1  0  0  0  0
 13 14  1  0  0  0  0
 13 15  1  0  0  0  0
 15 16  1  0  0  0  0
 16 17  1  0  0  0  0
 17 18  1  0  0  0  0
 18 19  2  0  0  0  0
 19 20  1  0  0  0  0
 19 21  1  0  0  0  0
 21 22  2  0  0  0  0
 21 23  1  0  0  0  0
 23 24  1  0  0  0  0
 23 25  2  0  0  0  0
 25 26  1  0  0  0  0
 25 27  1  0  0  0  0
 27 18  1  0  0  0  0
 27 13  1  0  0  0  0
 27 28  1  0  0  0  0
 28 29  1  0  0  0  0
 28 30  1  0  0  0  0
 28 31  1  0  0  0  0
 17 32  1  0  0  0  0
 17 33  1  0  0  0  0
 16 34  1  0  0  0  0
 16 35  1  0  0  0  0
 15 36  1  0  0  0  0
 15 37  1  0  0  0  0
 37  1  1  0  0  0  0
 37 38  1  0  0  0  0
 37 39  1  0  0  0  0
 39 40  1  0  0  0  0
 39 41  1  0  0  0  0
 39 42  1  0  0  0  0
 42 43  1  0  0  0  0
 43 44  1  0  0  0  0
 43 45  1  0  0  0  0
 43 46  1  0  0  0  0
 42 47  1  0  0  0  0
 42 48  1  0  0  0  0
 48  1  1  0  0  0  0
 48 49  1  0  0  0  0
 49 50  1  0  0  0  0
 50 51  1  0  0  0  0
 51 52  1  0  0  0  0
 52 53  1  0  0  0  0
 53 54  1  0  0  0  0
 54 55  1  0  0  0  0
 54 56  1  0  0  0  0
 54 57  1  0  0  0  0
 53 58  1  0  0  0  0
 53 59  1  0  0  0  0
 52 60  1  0  0  0  0
 52 61  1  0  0  0  0
 51 62  1  0  0  0  0
 51 63  1  0  0  0  0
 50 64  2  0  0  0  0
 48 65  1  0  0  0  0
 65 66  1  0  0  0  0
 66 67  1  0  0  0  0
 67 68  1  0  0  0  0
 66 69  1  0  0  0  0
 66 70  1  0  0  0  0
 65 71  2  0  0  0  0
M  END
> <CAS>
2152-44-5

> <NAME>
BETAMETHASONE-17-VALERATE

> <preferred_name>
Betamethasone valerate

> <iupac>
(11beta,16beta)-9-fluoro-11,21-dihydroxy-16-methyl-3,20-dioxopregna-1,4-dien-17-yl pentanoate

> <SMILES>
C[C@H]1C[C@H]2[C@@H]3CCC4=CC(=O)C=C[C@]4(C)[C@@]3(F)[C@@H](O)C[C@]2(C)[C@@]1(OC(=O)CCCC)C(=O)CO

> <Canonical_QSARr>
CC1CC2C3CCC4=CC(=O)C=CC4(C)C3(F)C(O)CC2(C)C1(OC(=O)CCCC)C(=O)CO

> <InChI_Code_QSARr>
InChI=1S/C27H37FO6/c1-5-6-7-23(33)34-27(22(32)15-29)16(2)12-20-19-9-8-17-13-18(30)10-11-24(17,3)26(19,28)21(31)14-25(20,27)4/h10-11,13,16,19-21,29,31H,5-9,12,14-15H2,1-4H3

> <InChI Key_QSARr>
SNHRLVCMMWUAJD-UHFFFAOYSA-N

> <Salt_Solvent>
?

> <WS Temperature>
25

> <WS Reference>
YALKOWSKY,SH & VALVANI,SC (1980)

> <dsstox_substance_id>
DTXSID7022673

> <LogMolar>
-4.7101

$$$$
2163-69-1
  -INDIGO-01081615412D

 36 36  0  0  0  0  0  0  0  0999 V2000
    2.7608    0.2415    0.0000 C   0  0  0  0  0  0  0  0  0  0  0  0
    1.4501   -0.6762    0.0000 N   0  0  0  0  0  0  0  0  0  0  0  0
    0.0000   -0.0000    0.0000 C   0  0  0  0  0  0  0  0  0  0  0  0
   -0.4140    1.5455    0.0000 C   0  0  0  0  0  0  0  0  0  0  0  0
    1.1616    1.8233    0.0000 H   0  0  0  0  0  0  0  0  0  0  0  0
    0.0000    3.0910    0.0000 H   0  0  0  0  0  0  0  0  0  0  0  0
   -1.7998    2.3455    0.0000 C   0  0  0  0  0  0  0  0  0  0  0  0
   -0.8820    3.6562    0.0000 H   0  0  0  0  0  0  0  0  0  0  0  0
   -2.5997    3.7311    0.0000 H   0  0  0  0  0  0  0  0  0  0  0  0
   -3.3452    1.9314    0.0000 C   0  0  0  0  0  0  0  0  0  0  0  0
   -3.6231    3.5070    0.0000 H   0  0  0  0  0  0  0  0  0  0  0  0
   -4.8908    2.3455    0.0000 H   0  0  0  0  0  0  0  0  0  0  0  0
   -4.1453    0.5457    0.0000 C   0  0  0  0  0  0  0  0  0  0  0  0
   -5.4558    1.4635    0.0000 H   0  0  0  0  0  0  0  0  0  0  0  0
   -5.6487   -0.0015    0.0000 H   0  0  0  0  0  0  0  0  0  0  0  0
   -3.7311   -0.9997    0.0000 C   0  0  0  0  0  0  0  0  0  0  0  0
   -5.3312   -0.9997    0.0000 H   0  0  0  0  0  0  0  0  0  0  0  0
   -4.4072   -2.4499    0.0000 H   0  0  0  0  0  0  0  0  0  0  0  0
   -2.3455   -1.7998    0.0000 C   0  0  0  0  0  0  0  0  0  0  0  0
   -3.4769   -2.9312    0.0000 H   0  0  0  0  0  0  0  0  0  0  0  0
   -1.7982   -3.3032    0.0000 H   0  0  0  0  0  0  0  0  0  0  0  0
   -0.7999   -1.3856    0.0000 C   0  0  0  0  0  0  0  0  0  0  0  0
   -0.7999   -2.9857    0.0000 H   0  0  0  0  0  0  0  0  0  0  0  0
    0.7455   -1.7998    0.0000 H   0  0  0  0  0  0  0  0  0  0  0  0
    1.3856    0.8000    0.0000 H   0  0  0  0  0  0  0  0  0  0  0  0
    1.8641   -2.2217    0.0000 H   0  0  0  0  0  0  0  0  0  0  0  0
    4.2108   -0.4346    0.0000 N   0  0  0  0  0  0  0  0  0  0  0  0
    5.5215    0.4830    0.0000 C   0  0  0  0  0  0  0  0  0  0  0  0
    6.8321    1.4008    0.0000 H   0  0  0  0  0  0  0  0  0  0  0  0
    6.9716   -0.1932    0.0000 H   0  0  0  0  0  0  0  0  0  0  0  0
    5.3821    2.0769    0.0000 H   0  0  0  0  0  0  0  0  0  0  0  0
    4.3503   -2.0286    0.0000 C   0  0  0  0  0  0  0  0  0  0  0  0
    5.8003   -2.7047    0.0000 H   0  0  0  0  0  0  0  0  0  0  0  0
    4.4897   -3.6225    0.0000 H   0  0  0  0  0  0  0  0  0  0  0  0
    3.0396   -2.9463    0.0000 H   0  0  0  0  0  0  0  0  0  0  0  0
    2.6213    1.8355    0.0000 O   0  0  0  0  0  0  0  0  0  0  0  0
  1  2  1  0  0  0  0
  2  3  1  0  0  0  0
  3  4  1  0  0  0  0
  4  5  1  0  0  0  0
  4  6  1  0  0  0  0
  4  7  1  0  0  0  0
  7  8  1  0  0  0  0
  7  9  1  0  0  0  0
  7 10  1  0  0  0  0
 10 11  1  0  0  0  0
 10 12  1  0  0  0  0
 10 13  1  0  0  0  0
 13 14  1  0  0  0  0
 13 15  1  0  0  0  0
 13 16  1  0  0  0  0
 16 17  1  0  0  0  0
 16 18  1  0  0  0  0
 16 19  1  0  0  0  0
 19 20  1  0  0  0  0
 19 21  1  0  0  0  0
 19 22  1  0  0  0  0
 22  3  1  0  0  0  0
 22 23  1  0  0  0  0
 22 24  1  0  0  0  0
  3 25  1  0  0  0  0
  2 26  1  0  0  0  0
  1 27  1  0  0  0  0
 27 28  1  0  0  0  0
 28 29  1  0  0  0  0
 28 30  1  0  0  0  0
 28 31  1  0  0  0  0
 27 32  1  0  0  0  0
 32 33  1  0  0  0  0
 32 34  1  0  0  0  0
 32 35  1  0  0  0  0
  1 36  2  0  0  0  0
M  END
> <CAS>
2163-69-1

> <NAME>
CYCLURON

> <preferred_name>
Cycluron

> <iupac>
3-cyclooctyl-1,1-dimethylurea

> <SMILES>
CN(C)C(=O)NC1CCCCCCC1

> <Canonical_QSARr>
CN(C)C(=O)NC1CCCCCCC1

> <InChI_Code_QSARr>
InChI=1S/C11H22N2O/c1-13(2)11(14)12-10-8-6-4-3-5-7-9-10/h10H,3-9H2,1-2H3,(H,12,14)

> <InChI Key_QSARr>
DQZCVNGCTZLGAQ-UHFFFAOYSA-N

> <Salt_Solvent>
?

> <WS Temperature>
20

> <WS Reference>
YALKOWSKY,SH & DANNENFELSER,RM (1992)

> <dsstox_substance_id>
DTXSID8041824

> <LogMolar>
-2.2182

$$$$
2164-17-2
  -INDIGO-01081615412D

 27 27  0  0  0  0  0  0  0  0999 V2000
    5.5426   -1.6001    0.0000 O   0  0  0  0  0  0  0  0  0  0  0  0
    5.5426    0.0001    0.0000 C   0  0  0  0  0  0  0  0  0  0  0  0
    6.9283    0.8000    0.0000 N   0  0  0  0  0  0  0  0  0  0  0  0
    8.3138    0.0001    0.0000 C   0  0  0  0  0  0  0  0  0  0  0  0
    9.6995   -0.8000    0.0000 H   0  0  0  0  0  0  0  0  0  0  0  0
    9.6995    0.8000    0.0000 H   0  0  0  0  0  0  0  0  0  0  0  0
    8.3138   -1.5999    0.0000 H   0  0  0  0  0  0  0  0  0  0  0  0
    6.9283    2.4000    0.0000 C   0  0  0  0  0  0  0  0  0  0  0  0
    6.9283    4.0000    0.0000 H   0  0  0  0  0  0  0  0  0  0  0  0
    8.3138    3.2001    0.0000 H   0  0  0  0  0  0  0  0  0  0  0  0
    5.5426    3.2001    0.0000 H   0  0  0  0  0  0  0  0  0  0  0  0
    4.1569    0.8000    0.0000 N   0  0  0  0  0  0  0  0  0  0  0  0
    2.7713   -0.0001    0.0000 C   0  0  0  0  0  0  0  0  0  0  0  0
    1.3856    0.8000    0.0000 C   0  0  0  0  0  0  0  0  0  0  0  0
    1.3856    2.4000    0.0000 H   0  0  0  0  0  0  0  0  0  0  0  0
   -0.0001   -0.0001    0.0000 C   0  0  0  0  0  0  0  0  0  0  0  0
   -1.3856    0.8000    0.0000 C   0  0  0  0  0  0  0  0  0  0  0  0
   -2.7713    1.5999    0.0000 F   0  0  0  0  0  0  0  0  0  0  0  0
   -2.7713   -0.0001    0.0000 F   0  0  0  0  0  0  0  0  0  0  0  0
   -1.3856    2.4000    0.0000 F   0  0  0  0  0  0  0  0  0  0  0  0
   -0.0001   -1.6001    0.0000 C   0  0  0  0  0  0  0  0  0  0  0  0
   -1.3856   -2.4000    0.0000 H   0  0  0  0  0  0  0  0  0  0  0  0
    1.3856   -2.4000    0.0000 C   0  0  0  0  0  0  0  0  0  0  0  0
    1.3856   -4.0000    0.0000 H   0  0  0  0  0  0  0  0  0  0  0  0
    2.7713   -1.6001    0.0000 C   0  0  0  0  0  0  0  0  0  0  0  0
    4.1569   -2.4000    0.0000 H   0  0  0  0  0  0  0  0  0  0  0  0
    4.1569    2.4000    0.0000 H   0  0  0  0  0  0  0  0  0  0  0  0
  1  2  2  0  0  0  0
  2  3  1  0  0  0  0
  3  4  1  0  0  0  0
  4  5  1  0  0  0  0
  4  6  1  0  0  0  0
  4  7  1  0  0  0  0
  3  8  1  0  0  0  0
  8  9  1  0  0  0  0
  8 10  1  0  0  0  0
  8 11  1  0  0  0  0
  2 12  1  0  0  0  0
 12 13  1  0  0  0  0
 13 14  4  0  0  0  0
 14 15  1  0  0  0  0
 14 16  4  0  0  0  0
 16 17  1  0  0  0  0
 17 18  1  0  0  0  0
 17 19  1  0  0  0  0
 17 20  1  0  0  0  0
 16 21  4  0  0  0  0
 21 22  1  0  0  0  0
 21 23  4  0  0  0  0
 23 24  1  0  0  0  0
 23 25  4  0  0  0  0
 25 13  4  0  0  0  0
 25 26  1  0  0  0  0
 12 27  1  0  0  0  0
M  END
> <CAS>
2164-17-2

> <NAME>
FLUOMETURON

> <preferred_name>
Fluometuron

> <iupac>
1,1-dimethyl-3-[3-(trifluoromethyl)phenyl]urea

> <SMILES>
CN(C)C(=O)Nc1cc(ccc1)C(F)(F)F

> <Canonical_QSARr>
CN(C)C(=O)Nc1cc(ccc1)C(F)(F)F

> <InChI_Code_QSARr>
InChI=1S/C10H11F3N2O/c1-15(2)9(16)14-8-5-3-4-7(6-8)10(11,12)13/h3-6H,1-2H3,(H,14,16)

> <InChI Key_QSARr>
RZILCCPWPBTYDO-UHFFFAOYSA-N

> <Salt_Solvent>
?

> <WS Temperature>
22

> <WS Reference>
USDA PESTICIDE PROPERTIES DATABASE

> <dsstox_substance_id>
DTXSID8020628

> <LogMolar>
-3.4365

$$$$
2198-77-8
  -INDIGO-01081615412D

 18 19  0  0  0  0  0  0  0  0999 V2000
    0.0001   -0.0000    0.0000 C   0  0  0  0  0  0  0  0  0  0  0  0
   -1.3856    0.8000    0.0000 C   0  0  0  0  0  0  0  0  0  0  0  0
   -1.3856    2.4000    0.0000 H   0  0  0  0  0  0  0  0  0  0  0  0
   -2.7712   -0.0000    0.0000 C   0  0  0  0  0  0  0  0  0  0  0  0
   -4.1569    0.8000    0.0000 H   0  0  0  0  0  0  0  0  0  0  0  0
   -2.7712   -1.6000    0.0000 C   0  0  0  0  0  0  0  0  0  0  0  0
   -4.1569   -2.4000    0.0000 Cl  0  0  0  0  0  0  0  0  0  0  0  0
   -1.3856   -2.4000    0.0000 C   0  0  0  0  0  0  0  0  0  0  0  0
   -1.3856   -4.0000    0.0000 H   0  0  0  0  0  0  0  0  0  0  0  0
    0.0001   -1.6000    0.0000 C   0  0  0  0  0  0  0  0  0  0  0  0
    1.3856   -2.4000    0.0000 C   0  0  0  0  0  0  0  0  0  0  0  0
    1.3856   -4.0000    0.0000 H   0  0  0  0  0  0  0  0  0  0  0  0
    2.7713   -1.6000    0.0000 C   0  0  0  0  0  0  0  0  0  0  0  0
    4.1569   -2.4000    0.0000 Cl  0  0  0  0  0  0  0  0  0  0  0  0
    2.7713   -0.0000    0.0000 C   0  0  0  0  0  0  0  0  0  0  0  0
    4.1569    0.8000    0.0000 H   0  0  0  0  0  0  0  0  0  0  0  0
    1.3856    0.8000    0.0000 C   0  0  0  0  0  0  0  0  0  0  0  0
    1.3856    2.4000    0.0000 H   0  0  0  0  0  0  0  0  0  0  0  0
  1  2  4  0  0  0  0
  2  3  1  0  0  0  0
  2  4  4  0  0  0  0
  4  5  1  0  0  0  0
  4  6  4  0  0  0  0
  6  7  1  0  0  0  0
  6  8  4  0  0  0  0
  8  9  1  0  0  0  0
  8 10  4  0  0  0  0
 10  1  4  0  0  0  0
 10 11  4  0  0  0  0
 11 12  1  0  0  0  0
 11 13  4  0  0  0  0
 13 14  1  0  0  0  0
 13 15  4  0  0  0  0
 15 16  1  0  0  0  0
 15 17  4  0  0  0  0
 17  1  4  0  0  0  0
 17 18  1  0  0  0  0
M  END
> <CAS>
2198-77-8

> <NAME>
2,7-DICHLORONAPHTHALENE

> <preferred_name>
Naphthalene, 2,7-dichloro-

> <iupac>
2,7-DICHLORONAPHTHALENE

> <SMILES>
Clc1cc2cc(Cl)ccc2cc1

> <Canonical_QSARr>
Clc1cc2cc(Cl)ccc2cc1

> <InChI_Code_QSARr>
InChI=1S/C10H6Cl2/c11-9-3-1-7-2-4-10(12)6-8(7)5-9/h1-6H

> <InChI Key_QSARr>
DWBQZSYTSNYEEJ-UHFFFAOYSA-N

> <Salt_Solvent>
?

> <WS Temperature>
25

> <WS Reference>
OPPERHUIZEN,A ET AL. (1985)

> <dsstox_substance_id>
DTXSID7062247

> <LogMolar>
-5.9217

$$$$
2216-13-9
  -INDIGO-01081615412D

 23 24  0  0  0  0  0  0  0  0999 V2000
   -4.2042    0.9478    0.0000 O   0  0  0  0  0  0  0  0  0  0  0  0
   -2.6284    1.2256    0.0000 C   0  0  0  0  0  0  0  0  0  0  0  0
   -1.6000    0.0000    0.0000 C   0  0  0  0  0  0  0  0  0  0  0  0
   -2.4000   -1.3857    0.0000 C   0  0  0  0  0  0  0  0  0  0  0  0
   -3.9999   -1.3857    0.0000 H   0  0  0  0  0  0  0  0  0  0  0  0
   -1.6000   -2.7712    0.0000 C   0  0  0  0  0  0  0  0  0  0  0  0
   -2.4000   -4.1569    0.0000 H   0  0  0  0  0  0  0  0  0  0  0  0
   -0.0001   -2.7712    0.0000 C   0  0  0  0  0  0  0  0  0  0  0  0
    0.8000   -4.1569    0.0000 H   0  0  0  0  0  0  0  0  0  0  0  0
    0.8000   -1.3857    0.0000 C   0  0  0  0  0  0  0  0  0  0  0  0
    2.4000   -1.3857    0.0000 C   0  0  0  0  0  0  0  0  0  0  0  0
    3.1999    0.0000    0.0000 C   0  0  0  0  0  0  0  0  0  0  0  0
    2.4000    1.3856    0.0000 C   0  0  0  0  0  0  0  0  0  0  0  0
    0.8000    1.3856    0.0000 C   0  0  0  0  0  0  0  0  0  0  0  0
    0.5221    2.9614    0.0000 N   0  0  0  0  0  0  0  0  0  0  0  0
   -0.9814    3.5086    0.0000 O   0  0  0  0  0  0  0  0  0  0  0  0
    1.7479    3.9898    0.0000 O   0  0  0  0  0  0  0  0  0  0  0  0
   -0.0001    0.0000    0.0000 C   0  0  0  0  0  0  0  0  0  0  0  0
    3.1999    2.7713    0.0000 H   0  0  0  0  0  0  0  0  0  0  0  0
    4.8000    0.0000    0.0000 H   0  0  0  0  0  0  0  0  0  0  0  0
    3.1999   -2.7712    0.0000 H   0  0  0  0  0  0  0  0  0  0  0  0
   -2.0813    2.7292    0.0000 O   0  0  0  0  0  0  0  0  0  0  0  0
   -5.2326    2.1735    0.0000 H   0  0  0  0  0  0  0  0  0  0  0  0
  1  2  1  0  0  0  0
  2  3  1  0  0  0  0
  3  4  4  0  0  0  0
  4  5  1  0  0  0  0
  4  6  4  0  0  0  0
  6  7  1  0  0  0  0
  6  8  4  0  0  0  0
  8  9  1  0  0  0  0
  8 10  4  0  0  0  0
 10 11  4  0  0  0  0
 11 12  4  0  0  0  0
 12 13  4  0  0  0  0
 13 14  4  0  0  0  0
 14 15  1  0  0  0  0
 15 16  2  0  0  0  0
 15 17  1  0  0  0  0
 14 18  4  0  0  0  0
 18  3  4  0  0  0  0
 18 10  4  0  0  0  0
 13 19  1  0  0  0  0
 12 20  1  0  0  0  0
 11 21  1  0  0  0  0
  2 22  2  0  0  0  0
  1 23  1  0  0  0  0
M  CHG  2  15   1  17  -1
M  END
> <CAS>
2216-13-9

> <NAME>
1-NAPHTHALENECARBOXYLIC ACID, 8-NITRO-

> <preferred_name>
1-Naphthalenecarboxylic acid, 8-nitro-

> <iupac>
8-nitronaphthalene-1-carboxylic acid

> <SMILES>
[O-][N+](=O)c1cccc2cccc(C(O)=O)c21

> <Canonical_QSARr>
[O-][N+](=O)c1cccc2cccc(C(O)=O)c21

> <InChI_Code_QSARr>
InChI=1S/C11H7NO4/c13-11(14)8-5-1-3-7-4-2-6-9(10(7)8)12(15)16/h1-6H,(H,13,14)

> <InChI Key_QSARr>
USMKVLABRYGBJX-UHFFFAOYSA-N

> <Salt_Solvent>
?

> <WS Temperature>


> <WS Reference>
BEILSTEIN

> <dsstox_substance_id>
DTXSID10176689

> <LogMolar>
-2.7501

$$$$
2217-08-5
  -INDIGO-01081615412D

 31 31  0  0  0  0  0  0  0  0999 V2000
    0.5222    2.9614    0.0000 O   0  0  0  0  0  0  0  0  0  0  0  0
    0.8000    1.3856    0.0000 C   0  0  0  0  0  0  0  0  0  0  0  0
   -0.0000   -0.0001    0.0000 C   0  0  0  0  0  0  0  0  0  0  0  0
   -1.2256    1.0284    0.0000 C   0  0  0  0  0  0  0  0  0  0  0  0
   -2.4514    2.0569    0.0000 C   0  0  0  0  0  0  0  0  0  0  0  0
   -3.6770    3.0853    0.0000 C   0  0  0  0  0  0  0  0  0  0  0  0
   -4.9026    4.1138    0.0000 H   0  0  0  0  0  0  0  0  0  0  0  0
   -5.1805    2.5382    0.0000 H   0  0  0  0  0  0  0  0  0  0  0  0
   -3.3992    4.6611    0.0000 H   0  0  0  0  0  0  0  0  0  0  0  0
   -3.4797    0.8312    0.0000 H   0  0  0  0  0  0  0  0  0  0  0  0
   -1.4229    3.2826    0.0000 H   0  0  0  0  0  0  0  0  0  0  0  0
   -0.1973    2.2542    0.0000 H   0  0  0  0  0  0  0  0  0  0  0  0
   -2.1856    0.5857    0.0000 H   0  0  0  0  0  0  0  0  0  0  0  0
   -1.3857   -0.8000    0.0000 C   0  0  0  0  0  0  0  0  0  0  0  0
   -2.7713   -1.6000    0.0000 C   0  0  0  0  0  0  0  0  0  0  0  0
   -4.1569   -2.3999    0.0000 C   0  0  0  0  0  0  0  0  0  0  0  0
   -5.5426   -3.2000    0.0000 H   0  0  0  0  0  0  0  0  0  0  0  0
   -5.5426   -1.6000    0.0000 H   0  0  0  0  0  0  0  0  0  0  0  0
   -4.1569   -4.0000    0.0000 H   0  0  0  0  0  0  0  0  0  0  0  0
   -3.5713   -0.2144    0.0000 H   0  0  0  0  0  0  0  0  0  0  0  0
   -1.9713   -2.9857    0.0000 H   0  0  0  0  0  0  0  0  0  0  0  0
   -2.2541   -0.1972    0.0000 H   0  0  0  0  0  0  0  0  0  0  0  0
   -0.5857   -2.1856    0.0000 H   0  0  0  0  0  0  0  0  0  0  0  0
    0.8000   -1.3856    0.0000 C   0  0  0  0  0  0  0  0  0  0  0  0
    0.2528   -2.8892    0.0000 O   0  0  0  0  0  0  0  0  0  0  0  0
    2.4001   -1.3856    0.0000 N   0  0  0  0  0  0  0  0  0  0  0  0
    3.2000   -2.7713    0.0000 H   0  0  0  0  0  0  0  0  0  0  0  0
    3.2000   -0.0001    0.0000 C   0  0  0  0  0  0  0  0  0  0  0  0
    4.8000   -0.0001    0.0000 O   0  0  0  0  0  0  0  0  0  0  0  0
    2.4001    1.3856    0.0000 N   0  0  0  0  0  0  0  0  0  0  0  0
    3.2000    2.7713    0.0000 H   0  0  0  0  0  0  0  0  0  0  0  0
  1  2  2  0  0  0  0
  2  3  1  0  0  0  0
  3  4  1  0  0  0  0
  4  5  1  0  0  0  0
  5  6  1  0  0  0  0
  6  7  1  0  0  0  0
  6  8  1  0  0  0  0
  6  9  1  0  0  0  0
  5 10  1  0  0  0  0
  5 11  1  0  0  0  0
  4 12  1  0  0  0  0
  4 13  1  0  0  0  0
  3 14  1  0  0  0  0
 14 15  1  0  0  0  0
 15 16  1  0  0  0  0
 16 17  1  0  0  0  0
 16 18  1  0  0  0  0
 16 19  1  0  0  0  0
 15 20  1  0  0  0  0
 15 21  1  0  0  0  0
 14 22  1  0  0  0  0
 14 23  1  0  0  0  0
  3 24  1  0  0  0  0
 24 25  2  0  0  0  0
 24 26  1  0  0  0  0
 26 27  1  0  0  0  0
 26 28  1  0  0  0  0
 28 29  2  0  0  0  0
 28 30  1  0  0  0  0
 30  2  1  0  0  0  0
 30 31  1  0  0  0  0
M  END
> <CAS>
2217-08-5

> <NAME>
BARBITURIC ACID,5,5-DIPR

> <preferred_name>
Propylbarbital

> <iupac>
5,5-dipropyl-1,3-diazinane-2,4,6-trione

> <SMILES>
CCCC1(CCC)C(=O)NC(=O)NC1=O

> <Canonical_QSARr>
CCCC1(CCC)C(=O)NC(=O)NC1=O

> <InChI_Code_QSARr>
InChI=1S/C10H16N2O3/c1-3-5-10(6-4-2)7(13)11-9(15)12-8(10)14/h3-6H2,1-2H3,(H2,11,12,13,14,15)

> <InChI Key_QSARr>
RCOUWKSZRXJXLA-UHFFFAOYSA-N

> <Salt_Solvent>
?

> <WS Temperature>
20

> <WS Reference>
YALKOWSKY,SH & DANNENFELSER,RM (1992)

> <dsstox_substance_id>
DTXSID10176700

> <LogMolar>
-2.5487

$$$$
2227-17-0
  -INDIGO-01081615412D

 20 21  0  0  0  0  0  0  0  0999 V2000
    0.0000    0.0000    0.0000 C   0  0  0  0  0  0  0  0  0  0  0  0
   -0.6508    1.4617    0.0000 Cl  0  0  0  0  0  0  0  0  0  0  0  0
    0.3326   -1.5651    0.0000 C   0  0  0  0  0  0  0  0  0  0  0  0
   -0.7380   -2.7541    0.0000 Cl  0  0  0  0  0  0  0  0  0  0  0  0
    1.9239   -1.7322    0.0000 C   0  0  0  0  0  0  0  0  0  0  0  0
    2.7238   -3.1179    0.0000 Cl  0  0  0  0  0  0  0  0  0  0  0  0
    2.5747   -0.2706    0.0000 C   0  0  0  0  0  0  0  0  0  0  0  0
    4.1397    0.0620    0.0000 Cl  0  0  0  0  0  0  0  0  0  0  0  0
    1.3856    0.8000    0.0000 C   0  0  0  0  0  0  0  0  0  0  0  0
    1.5528    2.3912    0.0000 Cl  0  0  0  0  0  0  0  0  0  0  0  0
   -1.5844   -0.2227    0.0000 C   0  0  0  0  0  0  0  0  0  0  0  0
   -0.9336   -1.6843    0.0000 Cl  0  0  0  0  0  0  0  0  0  0  0  0
   -1.9171    1.3424    0.0000 C   0  0  0  0  0  0  0  0  0  0  0  0
   -1.0692    2.6993    0.0000 Cl  0  0  0  0  0  0  0  0  0  0  0  0
   -3.5083    1.5096    0.0000 C   0  0  0  0  0  0  0  0  0  0  0  0
   -4.3083    2.8952    0.0000 Cl  0  0  0  0  0  0  0  0  0  0  0  0
   -4.1591    0.0479    0.0000 C   0  0  0  0  0  0  0  0  0  0  0  0
   -5.7241   -0.2847    0.0000 Cl  0  0  0  0  0  0  0  0  0  0  0  0
   -2.9701   -1.0227    0.0000 C   0  0  0  0  0  0  0  0  0  0  0  0
   -3.1373   -2.6139    0.0000 Cl  0  0  0  0  0  0  0  0  0  0  0  0
  1  2  1  0  0  0  0
  1  3  1  0  0  0  0
  3  4  1  0  0  0  0
  3  5  2  0  0  0  0
  5  6  1  0  0  0  0
  5  7  1  0  0  0  0
  7  8  1  0  0  0  0
  7  9  2  0  0  0  0
  9  1  1  0  0  0  0
  9 10  1  0  0  0  0
  1 11  1  0  0  0  0
 11 12  1  0  0  0  0
 11 13  1  0  0  0  0
 13 14  1  0  0  0  0
 13 15  2  0  0  0  0
 15 16  1  0  0  0  0
 15 17  1  0  0  0  0
 17 18  1  0  0  0  0
 17 19  2  0  0  0  0
 19 11  1  0  0  0  0
 19 20  1  0  0  0  0
M  END
> <CAS>
2227-17-0

> <NAME>
DIENOCHLOR

> <preferred_name>
Dienochlor

> <iupac>
1,1',2,2',3,3',4,4',5,5'-decachloro-1,1'-bi(cyclopenta-2,4-dien-1-yl)

> <SMILES>
ClC1(C(Cl)=C(Cl)C(Cl)=C1Cl)C1(Cl)C(Cl)=C(Cl)C(Cl)=C1Cl

> <Canonical_QSARr>
ClC1(C(Cl)=C(Cl)C(Cl)=C1Cl)C1(Cl)C(Cl)=C(Cl)C(Cl)=C1Cl

> <InChI_Code_QSARr>
InChI=1S/C10Cl10/c11-1-2(12)6(16)9(19,5(1)15)10(20)7(17)3(13)4(14)8(10)18

> <InChI Key_QSARr>
LWLJUMBEZJHXHV-UHFFFAOYSA-N

> <Salt_Solvent>
?

> <WS Temperature>
20

> <WS Reference>
TOMLIN,C (1994)

> <dsstox_substance_id>
DTXSID9032371

> <LogMolar>
-7.2784

$$$$
2237-30-1
  -INDIGO-01081615412D

 15 15  0  0  0  0  0  0  0  0999 V2000
   -1.3857    0.8000    0.0000 N   0  0  0  0  0  0  0  0  0  0  0  0
    0.0000   -0.0000    0.0000 C   0  0  0  0  0  0  0  0  0  0  0  0
    0.0000   -1.6000    0.0000 C   0  0  0  0  0  0  0  0  0  0  0  0
   -1.3856   -2.4000    0.0000 H   0  0  0  0  0  0  0  0  0  0  0  0
    1.3857   -2.4000    0.0000 C   0  0  0  0  0  0  0  0  0  0  0  0
    1.3857   -4.0000    0.0000 H   0  0  0  0  0  0  0  0  0  0  0  0
    2.7713   -1.6000    0.0000 C   0  0  0  0  0  0  0  0  0  0  0  0
    4.1570   -2.4000    0.0000 H   0  0  0  0  0  0  0  0  0  0  0  0
    2.7713   -0.0000    0.0000 C   0  0  0  0  0  0  0  0  0  0  0  0
    4.1570    0.8000    0.0000 C   0  0  0  0  0  0  0  0  0  0  0  0
    5.5426    1.6000    0.0000 N   0  0  0  0  0  0  0  0  0  0  0  0
    1.3857    0.8000    0.0000 C   0  0  0  0  0  0  0  0  0  0  0  0
    1.3856    2.4000    0.0000 H   0  0  0  0  0  0  0  0  0  0  0  0
   -2.7713   -0.0000    0.0000 H   0  0  0  0  0  0  0  0  0  0  0  0
   -1.3857    2.4000    0.0000 H   0  0  0  0  0  0  0  0  0  0  0  0
  1  2  1  0  0  0  0
  2  3  4  0  0  0  0
  3  4  1  0  0  0  0
  3  5  4  0  0  0  0
  5  6  1  0  0  0  0
  5  7  4  0  0  0  0
  7  8  1  0  0  0  0
  7  9  4  0  0  0  0
  9 10  1  0  0  0  0
 10 11  3  0  0  0  0
  9 12  4  0  0  0  0
 12  2  4  0  0  0  0
 12 13  1  0  0  0  0
  1 14  1  0  0  0  0
  1 15  1  0  0  0  0
M  END
> <CAS>
2237-30-1

> <NAME>
M-AMINOBENZONITRILE

> <preferred_name>
3-Aminobenzonitrile

> <iupac>
3-Aminobenzonitrile

> <SMILES>
Nc1cc(ccc1)C#N

> <Canonical_QSARr>
Nc1cc(ccc1)C#N

> <InChI_Code_QSARr>
InChI=1S/C7H6N2/c8-5-6-2-1-3-7(9)4-6/h1-4H,9H2

> <InChI Key_QSARr>
NJXPYZHXZZCTNI-UHFFFAOYSA-N

> <Salt_Solvent>
?

> <WS Temperature>
20

> <WS Reference>
BEILSTEIN

> <dsstox_substance_id>
DTXSID90176905

> <LogMolar>
-1.1693

$$$$
2257-09-2
  -INDIGO-01081615412D

 20 20  0  0  0  0  0  0  0  0999 V2000
   -1.6001   -0.0000    0.0000 C   0  0  0  0  0  0  0  0  0  0  0  0
   -2.4001    1.3856    0.0000 C   0  0  0  0  0  0  0  0  0  0  0  0
   -1.6001    2.7713    0.0000 H   0  0  0  0  0  0  0  0  0  0  0  0
   -4.0000    1.3856    0.0000 C   0  0  0  0  0  0  0  0  0  0  0  0
   -4.8000    2.7713    0.0000 H   0  0  0  0  0  0  0  0  0  0  0  0
   -4.8000   -0.0000    0.0000 C   0  0  0  0  0  0  0  0  0  0  0  0
   -6.4000   -0.0000    0.0000 H   0  0  0  0  0  0  0  0  0  0  0  0
   -4.0000   -1.3856    0.0000 C   0  0  0  0  0  0  0  0  0  0  0  0
   -4.8000   -2.7713    0.0000 H   0  0  0  0  0  0  0  0  0  0  0  0
   -2.4001   -1.3856    0.0000 C   0  0  0  0  0  0  0  0  0  0  0  0
   -1.6001   -2.7713    0.0000 H   0  0  0  0  0  0  0  0  0  0  0  0
    0.0001    0.0000    0.0000 C   0  0  0  0  0  0  0  0  0  0  0  0
    1.6001    0.0000    0.0000 C   0  0  0  0  0  0  0  0  0  0  0  0
    3.2000    0.0000    0.0000 N   0  0  0  0  0  0  0  0  0  0  0  0
    4.0000   -1.3856    0.0000 C   0  0  0  0  0  0  0  0  0  0  0  0
    4.8000   -2.7713    0.0000 S   0  0  0  0  0  0  0  0  0  0  0  0
    1.6001   -1.6000    0.0000 H   0  0  0  0  0  0  0  0  0  0  0  0
    1.6001    1.6000    0.0000 H   0  0  0  0  0  0  0  0  0  0  0  0
    0.0001   -1.6000    0.0000 H   0  0  0  0  0  0  0  0  0  0  0  0
    0.0001    1.6000    0.0000 H   0  0  0  0  0  0  0  0  0  0  0  0
  1  2  4  0  0  0  0
  2  3  1  0  0  0  0
  2  4  4  0  0  0  0
  4  5  1  0  0  0  0
  4  6  4  0  0  0  0
  6  7  1  0  0  0  0
  6  8  4  0  0  0  0
  8  9  1  0  0  0  0
  8 10  4  0  0  0  0
 10  1  4  0  0  0  0
 10 11  1  0  0  0  0
  1 12  1  0  0  0  0
 12 13  1  0  0  0  0
 13 14  1  0  0  0  0
 14 15  2  0  0  0  0
 15 16  2  0  0  0  0
 13 17  1  0  0  0  0
 13 18  1  0  0  0  0
 12 19  1  0  0  0  0
 12 20  1  0  0  0  0
M  END
> <CAS>
2257-09-2

> <NAME>
2-PHENETHYLISOTHIOCYANATE

> <preferred_name>
Phenethyl isothiocyanate

> <iupac>
(2-isothiocyanatoethyl)benzene

> <SMILES>
S=C=NCCc1ccccc1

> <Canonical_QSARr>
S=C=NCCc1ccccc1

> <InChI_Code_QSARr>
InChI=1S/C9H9NS/c11-8-10-7-6-9-4-2-1-3-5-9/h1-5H,6-7H2

> <InChI Key_QSARr>
IZJDOKYDEWTZSO-UHFFFAOYSA-N

> <Salt_Solvent>
?

> <WS Temperature>
20

> <WS Reference>
BEILSTEIN

> <dsstox_substance_id>
DTXSID5021120

> <LogMolar>
-3.1714

$$$$
2273-93-0
  -INDIGO-01081615412D

 16 17  0  0  0  0  0  0  0  0999 V2000
    0.0000    2.7713    0.0000 Cl  0  0  0  0  0  0  0  0  0  0  0  0
    0.7999    1.3856    0.0000 C   0  0  0  0  0  0  0  0  0  0  0  0
    0.0000    0.0000    0.0000 C   0  0  0  0  0  0  0  0  0  0  0  0
    0.7999   -1.3856    0.0000 C   0  0  0  0  0  0  0  0  0  0  0  0
   -0.2706   -2.5746    0.0000 N   0  0  0  1  0  0  0  0  0  0  0  0
   -1.7323   -1.9239    0.0000 C   0  0  0  0  0  0  0  0  0  0  0  0
   -1.5650   -0.3326    0.0000 N   0  0  0  1  0  0  0  0  0  0  0  0
   -2.7541    0.7380    0.0000 C   0  0  0  0  0  0  0  0  0  0  0  0
   -3.9431    1.8086    0.0000 H   0  0  0  0  0  0  0  0  0  0  0  0
   -4.2758    0.2435    0.0000 H   0  0  0  0  0  0  0  0  0  0  0  0
   -2.4214    2.3030    0.0000 H   0  0  0  0  0  0  0  0  0  0  0  0
   -3.1179   -2.7239    0.0000 H   0  0  0  0  0  0  0  0  0  0  0  0
    2.4000   -1.3856    0.0000 N   0  0  0  1  0  0  0  0  0  0  0  0
    3.2001    0.0000    0.0000 C   0  0  0  0  0  0  0  0  0  0  0  0
    4.8000    0.0000    0.0000 Cl  0  0  0  0  0  0  0  0  0  0  0  0
    2.4000    1.3856    0.0000 N   0  0  0  1  0  0  0  0  0  0  0  0
  1  2  1  0  0  0  0
  2  3  4  0  0  0  0
  3  4  4  0  0  0  0
  4  5  4  0  0  0  0
  5  6  4  0  0  0  0
  6  7  4  0  0  0  0
  7  3  4  0  0  0  0
  7  8  1  0  0  0  0
  8  9  1  0  0  0  0
  8 10  1  0  0  0  0
  8 11  1  0  0  0  0
  6 12  1  0  0  0  0
  4 13  4  0  0  0  0
 13 14  4  0  0  0  0
 14 15  1  0  0  0  0
 14 16  4  0  0  0  0
 16  2  4  0  0  0  0
M  END
> <CAS>
2273-93-0

> <NAME>
7H-Purine, 2,6-dichloro-7-methyl-

> <preferred_name>
Purine, 2,6-dichloro-7-methyl-

> <iupac>
2,6-Dichloro-7-methylpurine

> <SMILES>
C[n]1c[n]c2[n]c(Cl)[n]c(Cl)c12

> <Canonical_QSARr>
C[n]1c[n]c2[n]c(Cl)[n]c(Cl)c12

> <InChI_Code_QSARr>
InChI=1S/C6H4Cl2N4/c1-12-2-9-5-3(12)4(7)10-6(8)11-5/h2H,1H3

> <InChI Key_QSARr>
HVMUWHZAZGTMJK-UHFFFAOYSA-N

> <Salt_Solvent>
?

> <WS Temperature>


> <WS Reference>
BEILSTEIN

> <dsstox_substance_id>
DTXSID40177265

> <LogMolar>
-1.1522

$$$$
2303-17-5
  -INDIGO-01081615412D

 32 31  0  0  0  0  0  0  0  0999 V2000
   -1.3857   -4.0000    0.0000 O   0  0  0  0  0  0  0  0  0  0  0  0
   -1.3857   -2.4000    0.0000 C   0  0  0  0  0  0  0  0  0  0  0  0
   -2.7713   -1.6001    0.0000 S   0  0  0  0  0  0  0  0  0  0  0  0
   -4.1569   -2.4000    0.0000 C   0  0  0  0  0  0  0  0  0  0  0  0
   -5.5425   -3.2000    0.0000 C   0  0  0  0  0  0  0  0  0  0  0  0
   -5.5425   -4.8000    0.0000 Cl  0  0  0  0  0  0  0  0  0  0  0  0
   -6.9283   -2.4000    0.0000 C   0  0  0  0  0  0  0  0  0  0  0  0
   -8.3138   -3.2000    0.0000 Cl  0  0  0  0  0  0  0  0  0  0  0  0
   -6.9283   -0.8000    0.0000 Cl  0  0  0  0  0  0  0  0  0  0  0  0
   -4.9570   -1.0144    0.0000 H   0  0  0  0  0  0  0  0  0  0  0  0
   -3.3568   -3.7857    0.0000 H   0  0  0  0  0  0  0  0  0  0  0  0
    0.0001   -1.6001    0.0000 N   0  0  0  0  0  0  0  0  0  0  0  0
    1.3856   -2.4000    0.0000 C   0  0  0  0  0  0  0  0  0  0  0  0
    2.9614   -2.6779    0.0000 C   0  0  0  0  0  0  0  0  0  0  0  0
    4.5370   -2.9557    0.0000 H   0  0  0  0  0  0  0  0  0  0  0  0
    3.9897   -1.4522    0.0000 H   0  0  0  0  0  0  0  0  0  0  0  0
    3.5085   -4.1813    0.0000 H   0  0  0  0  0  0  0  0  0  0  0  0
    0.5856   -3.7857    0.0000 C   0  0  0  0  0  0  0  0  0  0  0  0
   -0.4427   -5.0113    0.0000 H   0  0  0  0  0  0  0  0  0  0  0  0
    1.1329   -5.2891    0.0000 H   0  0  0  0  0  0  0  0  0  0  0  0
    2.1614   -4.0635    0.0000 H   0  0  0  0  0  0  0  0  0  0  0  0
    2.1857   -1.0144    0.0000 H   0  0  0  0  0  0  0  0  0  0  0  0
    0.0001   -0.0000    0.0000 C   0  0  0  0  0  0  0  0  0  0  0  0
   -0.8000    1.3856    0.0000 C   0  0  0  0  0  0  0  0  0  0  0  0
   -1.6001    2.7713    0.0000 H   0  0  0  0  0  0  0  0  0  0  0  0
    0.0001    2.7713    0.0000 H   0  0  0  0  0  0  0  0  0  0  0  0
   -2.3999    1.3856    0.0000 H   0  0  0  0  0  0  0  0  0  0  0  0
    1.3856    0.8001    0.0000 C   0  0  0  0  0  0  0  0  0  0  0  0
    2.7712    1.6000    0.0000 H   0  0  0  0  0  0  0  0  0  0  0  0
    2.7712   -0.0000    0.0000 H   0  0  0  0  0  0  0  0  0  0  0  0
    1.3856    2.4000    0.0000 H   0  0  0  0  0  0  0  0  0  0  0  0
   -1.3857   -0.8000    0.0000 H   0  0  0  0  0  0  0  0  0  0  0  0
  1  2  2  0  0  0  0
  2  3  1  0  0  0  0
  3  4  1  0  0  0  0
  4  5  1  0  0  0  0
  5  6  1  0  0  0  0
  5  7  2  0  0  0  0
  7  8  1  0  0  0  0
  7  9  1  0  0  0  0
  4 10  1  0  0  0  0
  4 11  1  0  0  0  0
  2 12  1  0  0  0  0
 12 13  1  0  0  0  0
 13 14  1  0  0  0  0
 14 15  1  0  0  0  0
 14 16  1  0  0  0  0
 14 17  1  0  0  0  0
 13 18  1  0  0  0  0
 18 19  1  0  0  0  0
 18 20  1  0  0  0  0
 18 21  1  0  0  0  0
 13 22  1  0  0  0  0
 12 23  1  0  0  0  0
 23 24  1  0  0  0  0
 24 25  1  0  0  0  0
 24 26  1  0  0  0  0
 24 27  1  0  0  0  0
 23 28  1  0  0  0  0
 28 29  1  0  0  0  0
 28 30  1  0  0  0  0
 28 31  1  0  0  0  0
 23 32  1  0  0  0  0
M  END
> <CAS>
2303-17-5

> <NAME>
TRIALLATE

> <preferred_name>
Tri-allate

> <iupac>
S-(2,3,3-trichloroprop-2-en-1-yl) dipropan-2-ylcarbamothioate

> <SMILES>
CC(C)N(C(C)C)C(=O)SCC(Cl)=C(Cl)Cl

> <Canonical_QSARr>
CC(C)N(C(C)C)C(=O)SCC(Cl)=C(Cl)Cl

> <InChI_Code_QSARr>
InChI=1S/C10H16Cl3NOS/c1-6(2)14(7(3)4)10(15)16-5-8(11)9(12)13/h6-7H,5H2,1-4H3

> <InChI Key_QSARr>
MWBPRDONLNQCFV-UHFFFAOYSA-N

> <Salt_Solvent>
?

> <WS Temperature>
25

> <WS Reference>
TOMLIN,C (1997)

> <dsstox_substance_id>
DTXSID5024344

> <LogMolar>
-4.8818

$$$$
2308-57-8
  -INDIGO-01081615412D

 14 15  0  0  0  0  0  0  0  0999 V2000
    4.8000    0.0000    0.0000 O   0  0  0  0  0  0  0  0  0  0  0  0
    3.2000   -0.0000    0.0000 C   0  0  0  0  0  0  0  0  0  0  0  0
    2.4000    1.3856    0.0000 N   0  0  0  0  0  0  0  0  0  0  0  0
    0.8000    1.3856    0.0000 C   0  0  0  0  0  0  0  0  0  0  0  0
   -0.0000    2.7713    0.0000 H   0  0  0  0  0  0  0  0  0  0  0  0
   -0.0000   -0.0000    0.0000 C   0  0  0  0  0  0  0  0  0  0  0  0
    0.8000   -1.3856    0.0000 C   0  0  0  0  0  0  0  0  0  0  0  0
   -0.2706   -2.5746    0.0000 N   0  0  0  1  0  0  0  0  0  0  0  0
   -1.7322   -1.9239    0.0000 C   0  0  0  0  0  0  0  0  0  0  0  0
   -1.5650   -0.3327    0.0000 N   0  0  0  1  0  0  0  0  0  0  0  0
   -2.7540    0.7380    0.0000 H   0  0  0  0  0  0  0  0  0  0  0  0
   -3.1179   -2.7239    0.0000 H   0  0  0  0  0  0  0  0  0  0  0  0
    2.4000   -1.3856    0.0000 N   0  0  0  0  0  0  0  0  0  0  0  0
    3.2000   -2.7713    0.0000 H   0  0  0  0  0  0  0  0  0  0  0  0
  1  2  2  0  0  0  0
  2  3  1  0  0  0  0
  3  4  2  0  0  0  0
  4  5  1  0  0  0  0
  4  6  1  0  0  0  0
  6  7  4  0  0  0  0
  7  8  4  0  0  0  0
  8  9  4  0  0  0  0
  9 10  4  0  0  0  0
 10  6  4  0  0  0  0
 10 11  1  0  0  0  0
  9 12  1  0  0  0  0
  7 13  1  0  0  0  0
 13  2  1  0  0  0  0
 13 14  1  0  0  0  0
M  END
> <CAS>
2308-57-8

> <NAME>
2H-Purin-2-one, 1,3-dihydro-

> <preferred_name>
2H-Purin-2-one, 1,3-dihydro-

> <iupac>
3,7-dihydropurin-2-one

> <SMILES>
O=C1Nc2[n]c[nH]c2C=N1

> <Canonical_QSARr>
O=C1Nc2[n]c[nH]c2C=N1

> <InChI_Code_QSARr>
InChI=1S/C5H4N4O/c10-5-6-1-3-4(9-5)8-2-7-3/h1-2H,(H2,6,7,8,9,10)

> <InChI Key_QSARr>
CRIZPXKICGBNKG-UHFFFAOYSA-N

> <Salt_Solvent>
?

> <WS Temperature>
20

> <WS Reference>
BEILSTEIN

> <dsstox_substance_id>
DTXSID70177652

> <LogMolar>
-1.7136

$$$$
2314-09-2
  -INDIGO-01081615412D

 39 41  0  0  0  0  0  0  0  0999 V2000
   -1.2945    2.2420    0.0000 C   0  0  0  0  0  0  0  0  0  0  0  0
   -1.4618    3.8333    0.0000 C   0  0  0  0  0  0  0  0  0  0  0  0
   -2.9233    4.4840    0.0000 H   0  0  0  0  0  0  0  0  0  0  0  0
   -0.1673    4.7737    0.0000 C   0  0  0  0  0  0  0  0  0  0  0  0
   -0.3344    6.3649    0.0000 H   0  0  0  0  0  0  0  0  0  0  0  0
    1.2944    4.1230    0.0000 C   0  0  0  0  0  0  0  0  0  0  0  0
    2.5889    5.0634    0.0000 H   0  0  0  0  0  0  0  0  0  0  0  0
    1.4617    2.5317    0.0000 C   0  0  0  0  0  0  0  0  0  0  0  0
    3.0578    2.4200    0.0000 H   0  0  0  0  0  0  0  0  0  0  0  0
    0.1673    1.5913    0.0000 C   0  0  0  0  0  0  0  0  0  0  0  0
   -0.0000    0.0001    0.0000 C   0  0  0  0  0  0  0  0  0  0  0  0
    0.1673   -1.5912    0.0000 O   0  0  0  0  0  0  0  0  0  0  0  0
    1.6290   -2.2421    0.0000 H   0  0  0  0  0  0  0  0  0  0  0  0
    1.6001    0.0001    0.0000 C   0  0  0  0  0  0  0  0  0  0  0  0
    2.4001   -1.3856    0.0000 O   0  0  0  0  0  0  0  0  0  0  0  0
    3.9999   -1.3856    0.0000 C   0  0  0  0  0  0  0  0  0  0  0  0
    5.6001   -1.3856    0.0000 C   0  0  0  0  0  0  0  0  0  0  0  0
    7.2000   -1.3856    0.0000 C   0  0  0  0  0  0  0  0  0  0  0  0
    8.8001   -1.3856    0.0000 C   0  0  0  0  0  0  0  0  0  0  0  0
   10.4000   -1.3856    0.0000 H   0  0  0  0  0  0  0  0  0  0  0  0
    9.6001   -2.7713    0.0000 H   0  0  0  0  0  0  0  0  0  0  0  0
    9.6001    0.0001    0.0000 H   0  0  0  0  0  0  0  0  0  0  0  0
    7.2000   -2.9856    0.0000 H   0  0  0  0  0  0  0  0  0  0  0  0
    7.2000    0.2143    0.0000 H   0  0  0  0  0  0  0  0  0  0  0  0
    5.6001   -2.9856    0.0000 H   0  0  0  0  0  0  0  0  0  0  0  0
    5.6001    0.2143    0.0000 H   0  0  0  0  0  0  0  0  0  0  0  0
    3.9999   -2.9856    0.0000 H   0  0  0  0  0  0  0  0  0  0  0  0
    3.9999    0.2143    0.0000 H   0  0  0  0  0  0  0  0  0  0  0  0
    2.4001    1.3857    0.0000 O   0  0  0  0  0  0  0  0  0  0  0  0
   -1.5651   -0.3327    0.0000 C   0  0  0  0  0  0  0  0  0  0  0  0
   -2.3651   -1.7183    0.0000 C   0  0  0  0  0  0  0  0  0  0  0  0
   -3.9650   -1.7183    0.0000 C   0  0  0  0  0  0  0  0  0  0  0  0
   -4.7652   -0.3327    0.0000 C   0  0  0  0  0  0  0  0  0  0  0  0
   -3.9650    1.0529    0.0000 C   0  0  0  0  0  0  0  0  0  0  0  0
   -4.7652    2.4387    0.0000 H   0  0  0  0  0  0  0  0  0  0  0  0
   -2.3651    1.0529    0.0000 C   0  0  0  0  0  0  0  0  0  0  0  0
   -6.3650   -0.3327    0.0000 H   0  0  0  0  0  0  0  0  0  0  0  0
   -4.7652   -3.1039    0.0000 H   0  0  0  0  0  0  0  0  0  0  0  0
   -1.5651   -3.1039    0.0000 H   0  0  0  0  0  0  0  0  0  0  0  0
  1  2  4  0  0  0  0
  2  3  1  0  0  0  0
  2  4  4  0  0  0  0
  4  5  1  0  0  0  0
  4  6  4  0  0  0  0
  6  7  1  0  0  0  0
  6  8  4  0  0  0  0
  8  9  1  0  0  0  0
  8 10  4  0  0  0  0
 10  1  4  0  0  0  0
 10 11  1  0  0  0  0
 11 12  1  0  0  0  0
 12 13  1  0  0  0  0
 11 14  1  0  0  0  0
 14 15  1  0  0  0  0
 15 16  1  0  0  0  0
 16 17  1  0  0  0  0
 17 18  1  0  0  0  0
 18 19  1  0  0  0  0
 19 20  1  0  0  0  0
 19 21  1  0  0  0  0
 19 22  1  0  0  0  0
 18 23  1  0  0  0  0
 18 24  1  0  0  0  0
 17 25  1  0  0  0  0
 17 26  1  0  0  0  0
 16 27  1  0  0  0  0
 16 28  1  0  0  0  0
 14 29  2  0  0  0  0
 11 30  1  0  0  0  0
 30 31  4  0  0  0  0
 31 32  4  0  0  0  0
 32 33  4  0  0  0  0
 33 34  4  0  0  0  0
 34 35  1  0  0  0  0
 34 36  4  0  0  0  0
 36  1  1  0  0  0  0
 36 30  4  0  0  0  0
 33 37  1  0  0  0  0
 32 38  1  0  0  0  0
 31 39  1  0  0  0  0
M  END
> <CAS>
2314-09-2

> <NAME>
Flurenol-butyl

> <preferred_name>
Flurenol-butyl

> <iupac>
butyl 9-hydroxy-9H-fluorene-9-carboxylate

> <SMILES>
CCCCOC(=O)C1(O)c2ccccc2-c2ccccc12

> <Canonical_QSARr>
CCCCOC(=O)C1(O)c2ccccc2-c2ccccc12

> <InChI_Code_QSARr>
InChI=1S/C18H18O3/c1-2-3-12-21-17(19)18(20)15-10-6-4-8-13(15)14-9-5-7-11-16(14)18/h4-11,20H,2-3,12H2,1H3

> <InChI Key_QSARr>
PSGPXWYGJGGEEG-UHFFFAOYSA-N

> <Salt_Solvent>
?

> <WS Temperature>
20

> <WS Reference>
TOMLIN,C (1994)

> <dsstox_substance_id>
DTXSID5041986

> <LogMolar>
-3.8885

$$$$
2338-45-6
  -INDIGO-01081615412D

 23 22  0  0  0  0  0  0  0  0999 V2000
   -1.2257    2.6284    0.0000 O   0  0  0  0  0  0  0  0  0  0  0  0
    0.0000    1.6000    0.0000 C   0  0  0  0  0  0  0  0  0  0  0  0
    0.0000    0.0000    0.0000 C   0  0  0  0  0  0  0  0  0  0  0  0
   -1.6000    0.0000    0.0000 C   0  0  0  0  0  0  0  0  0  0  0  0
   -3.2001    0.0000    0.0000 C   0  0  0  0  0  0  0  0  0  0  0  0
   -3.9999    1.3856    0.0000 O   0  0  0  0  0  0  0  0  0  0  0  0
   -3.9999   -1.3857    0.0000 O   0  0  0  0  0  0  0  0  0  0  0  0
   -5.6000   -1.3857    0.0000 H   0  0  0  0  0  0  0  0  0  0  0  0
   -1.6000   -1.6000    0.0000 H   0  0  0  0  0  0  0  0  0  0  0  0
   -1.6000    1.6000    0.0000 H   0  0  0  0  0  0  0  0  0  0  0  0
    1.5999    0.0000    0.0000 C   0  0  0  0  0  0  0  0  0  0  0  0
    3.1757    0.2778    0.0000 C   0  0  0  0  0  0  0  0  0  0  0  0
    4.7514    0.5556    0.0000 H   0  0  0  0  0  0  0  0  0  0  0  0
    3.7230    1.7814    0.0000 H   0  0  0  0  0  0  0  0  0  0  0  0
    4.2041   -0.9478    0.0000 H   0  0  0  0  0  0  0  0  0  0  0  0
    1.8778   -1.5757    0.0000 C   0  0  0  0  0  0  0  0  0  0  0  0
    2.1556   -3.1514    0.0000 H   0  0  0  0  0  0  0  0  0  0  0  0
    3.3813   -2.1229    0.0000 H   0  0  0  0  0  0  0  0  0  0  0  0
    0.6522   -2.6041    0.0000 H   0  0  0  0  0  0  0  0  0  0  0  0
    1.3221    1.5756    0.0000 H   0  0  0  0  0  0  0  0  0  0  0  0
    0.0000   -1.6000    0.0000 H   0  0  0  0  0  0  0  0  0  0  0  0
    1.0285    2.8256    0.0000 O   0  0  0  0  0  0  0  0  0  0  0  0
   -0.9478    4.2042    0.0000 H   0  0  0  0  0  0  0  0  0  0  0  0
  1  2  1  0  0  0  0
  2  3  1  0  0  0  0
  3  4  1  0  0  0  0
  4  5  1  0  0  0  0
  5  6  2  0  0  0  0
  5  7  1  0  0  0  0
  7  8  1  0  0  0  0
  4  9  1  0  0  0  0
  4 10  1  0  0  0  0
  3 11  1  0  0  0  0
 11 12  1  0  0  0  0
 12 13  1  0  0  0  0
 12 14  1  0  0  0  0
 12 15  1  0  0  0  0
 11 16  1  0  0  0  0
 16 17  1  0  0  0  0
 16 18  1  0  0  0  0
 16 19  1  0  0  0  0
 11 20  1  0  0  0  0
  3 21  1  0  0  0  0
  2 22  2  0  0  0  0
  1 23  1  0  0  0  0
M  END
> <CAS>
2338-45-6

> <NAME>
Butanedioic acid, (1-methylethyl)-

> <preferred_name>
2-ISOPROPYLSUCCINIC ACID

> <iupac>
C7H12O4

> <SMILES>
CC(C)C(CC(O)=O)C(O)=O

> <Canonical_QSARr>
CC(C)C(CC(O)=O)C(O)=O

> <InChI_Code_QSARr>
InChI=1S/C7H12O4/c1-4(2)5(7(10)11)3-6(8)9/h4-5H,3H2,1-2H3,(H,8,9)(H,10,11)

> <InChI Key_QSARr>
RKAFKUROUOLPOL-UHFFFAOYSA-N

> <Salt_Solvent>
?

> <WS Temperature>
20

> <WS Reference>
BEILSTEIN

> <dsstox_substance_id>
DTXSID30281047

> <LogMolar>
-0.4073

$$$$
2373-80-0
  -INDIGO-01081615412D

 22 23  0  0  0  0  0  0  0  0999 V2000
   -6.9281    0.8000    0.0000 C   0  0  0  0  0  0  0  0  0  0  0  0
   -8.3138   -0.0000    0.0000 O   0  0  0  0  0  0  0  0  0  0  0  0
   -9.6995    0.8000    0.0000 H   0  0  0  0  0  0  0  0  0  0  0  0
   -6.9281    2.4000    0.0000 O   0  0  0  0  0  0  0  0  0  0  0  0
   -5.5426   -0.0000    0.0000 C   0  0  0  0  0  0  0  0  0  0  0  0
   -4.1569    0.8000    0.0000 C   0  0  0  0  0  0  0  0  0  0  0  0
   -2.7712   -0.0000    0.0000 C   0  0  0  0  0  0  0  0  0  0  0  0
   -2.7712   -1.6000    0.0000 C   0  0  0  0  0  0  0  0  0  0  0  0
   -4.1569   -2.4000    0.0000 H   0  0  0  0  0  0  0  0  0  0  0  0
   -1.3855   -2.4000    0.0000 C   0  0  0  0  0  0  0  0  0  0  0  0
   -1.3855   -4.0000    0.0000 H   0  0  0  0  0  0  0  0  0  0  0  0
   -0.0001   -1.6000    0.0000 C   0  0  0  0  0  0  0  0  0  0  0  0
    1.5217   -2.0944    0.0000 O   0  0  0  0  0  0  0  0  0  0  0  0
    2.4621   -0.8000    0.0000 C   0  0  0  0  0  0  0  0  0  0  0  0
    1.5217    0.4944    0.0000 O   0  0  0  0  0  0  0  0  0  0  0  0
   -0.0001   -0.0000    0.0000 C   0  0  0  0  0  0  0  0  0  0  0  0
   -1.3855    0.8000    0.0000 C   0  0  0  0  0  0  0  0  0  0  0  0
   -1.3855    2.4000    0.0000 H   0  0  0  0  0  0  0  0  0  0  0  0
    3.6512   -1.8706    0.0000 H   0  0  0  0  0  0  0  0  0  0  0  0
    3.6512    0.2706    0.0000 H   0  0  0  0  0  0  0  0  0  0  0  0
   -4.1569    2.4000    0.0000 H   0  0  0  0  0  0  0  0  0  0  0  0
   -5.5426   -1.6000    0.0000 H   0  0  0  0  0  0  0  0  0  0  0  0
  1  2  1  0  0  0  0
  2  3  1  0  0  0  0
  1  4  2  0  0  0  0
  1  5  1  0  0  0  0
  5  6  2  0  0  0  0
  6  7  1  0  0  0  0
  7  8  4  0  0  0  0
  8  9  1  0  0  0  0
  8 10  4  0  0  0  0
 10 11  1  0  0  0  0
 10 12  4  0  0  0  0
 12 13  1  0  0  0  0
 13 14  1  0  0  0  0
 14 15  1  0  0  0  0
 15 16  1  0  0  0  0
 16 12  4  0  0  0  0
 16 17  4  0  0  0  0
 17  7  4  0  0  0  0
 17 18  1  0  0  0  0
 14 19  1  0  0  0  0
 14 20  1  0  0  0  0
  6 21  1  0  0  0  0
  5 22  1  0  0  0  0
M  END
> <CAS>
2373-80-0

> <NAME>
3,4-(METHYLENEDIOXY)CINNAMIC ACID

> <preferred_name>


> <iupac>


> <SMILES>
OC(=O)/C=C/c1cc2OCOc2cc1

> <Canonical_QSARr>
OC(=O)C=Cc1cc2OCOc2cc1

> <InChI_Code_QSARr>
InChI=1S/C10H8O4/c11-10(12)4-2-7-1-3-8-9(5-7)14-6-13-8/h1-5H,6H2,(H,11,12)/b4-2+

> <InChI Key_QSARr>
QFQYZMGOKIROEC-DUXPYHPUSA-N

> <Salt_Solvent>
?

> <WS Temperature>
25

> <WS Reference>
STEPHEN,H & STEPHEN,T (1963)

> <dsstox_substance_id>


> <LogMolar>
-3.8523

$$$$
2381-39-7
  -INDIGO-01081615412D

 35 39  0  0  0  0  0  0  0  0999 V2000
    1.6000   -0.0001    0.0000 C   0  0  0  0  0  0  0  0  0  0  0  0
    2.4000   -1.3856    0.0000 C   0  0  0  0  0  0  0  0  0  0  0  0
    1.6000   -2.7712    0.0000 C   0  0  0  0  0  0  0  0  0  0  0  0
    0.0000   -2.7712    0.0000 C   0  0  0  0  0  0  0  0  0  0  0  0
   -0.8000   -4.1569    0.0000 H   0  0  0  0  0  0  0  0  0  0  0  0
   -0.8000   -1.3856    0.0000 C   0  0  0  0  0  0  0  0  0  0  0  0
   -2.4000   -1.3856    0.0000 C   0  0  0  0  0  0  0  0  0  0  0  0
   -3.2000   -2.7712    0.0000 C   0  0  0  0  0  0  0  0  0  0  0  0
   -4.0000   -4.1569    0.0000 H   0  0  0  0  0  0  0  0  0  0  0  0
   -4.8000   -2.7712    0.0000 H   0  0  0  0  0  0  0  0  0  0  0  0
   -2.4000   -4.1569    0.0000 H   0  0  0  0  0  0  0  0  0  0  0  0
   -3.2000    0.0001    0.0000 C   0  0  0  0  0  0  0  0  0  0  0  0
   -4.8000    0.0001    0.0000 C   0  0  0  0  0  0  0  0  0  0  0  0
   -5.6000   -1.3856    0.0000 H   0  0  0  0  0  0  0  0  0  0  0  0
   -5.6000    1.3856    0.0000 C   0  0  0  0  0  0  0  0  0  0  0  0
   -7.2000    1.3856    0.0000 H   0  0  0  0  0  0  0  0  0  0  0  0
   -4.8000    2.7712    0.0000 C   0  0  0  0  0  0  0  0  0  0  0  0
   -5.6000    4.1569    0.0000 H   0  0  0  0  0  0  0  0  0  0  0  0
   -3.2000    2.7712    0.0000 C   0  0  0  0  0  0  0  0  0  0  0  0
   -2.4000    4.1569    0.0000 H   0  0  0  0  0  0  0  0  0  0  0  0
   -2.4000    1.3856    0.0000 C   0  0  0  0  0  0  0  0  0  0  0  0
   -0.8000    1.3856    0.0000 C   0  0  0  0  0  0  0  0  0  0  0  0
    0.0000    2.7712    0.0000 C   0  0  0  0  0  0  0  0  0  0  0  0
    1.6000    2.7712    0.0000 C   0  0  0  0  0  0  0  0  0  0  0  0
    2.4000    1.3856    0.0000 C   0  0  0  0  0  0  0  0  0  0  0  0
    4.0000    1.3856    0.0000 C   0  0  0  0  0  0  0  0  0  0  0  0
    4.8000   -0.0001    0.0000 C   0  0  0  0  0  0  0  0  0  0  0  0
    4.0000   -1.3856    0.0000 C   0  0  0  0  0  0  0  0  0  0  0  0
    4.8000   -2.7713    0.0000 H   0  0  0  0  0  0  0  0  0  0  0  0
    6.4000   -0.0001    0.0000 H   0  0  0  0  0  0  0  0  0  0  0  0
    4.8000    2.7712    0.0000 H   0  0  0  0  0  0  0  0  0  0  0  0
    2.4000    4.1569    0.0000 H   0  0  0  0  0  0  0  0  0  0  0  0
   -0.8000    4.1569    0.0000 H   0  0  0  0  0  0  0  0  0  0  0  0
    0.0000    0.0001    0.0000 C   0  0  0  0  0  0  0  0  0  0  0  0
    2.4000   -4.1569    0.0000 H   0  0  0  0  0  0  0  0  0  0  0  0
  1  2  4  0  0  0  0
  2  3  4  0  0  0  0
  3  4  4  0  0  0  0
  4  5  1  0  0  0  0
  4  6  4  0  0  0  0
  6  7  4  0  0  0  0
  7  8  1  0  0  0  0
  8  9  1  0  0  0  0
  8 10  1  0  0  0  0
  8 11  1  0  0  0  0
  7 12  4  0  0  0  0
 12 13  4  0  0  0  0
 13 14  1  0  0  0  0
 13 15  4  0  0  0  0
 15 16  1  0  0  0  0
 15 17  4  0  0  0  0
 17 18  1  0  0  0  0
 17 19  4  0  0  0  0
 19 20  1  0  0  0  0
 19 21  4  0  0  0  0
 21 12  4  0  0  0  0
 21 22  4  0  0  0  0
 22 23  4  0  0  0  0
 23 24  4  0  0  0  0
 24 25  4  0  0  0  0
 25  1  4  0  0  0  0
 25 26  4  0  0  0  0
 26 27  4  0  0  0  0
 27 28  4  0  0  0  0
 28  2  4  0  0  0  0
 28 29  1  0  0  0  0
 27 30  1  0  0  0  0
 26 31  1  0  0  0  0
 24 32  1  0  0  0  0
 23 33  1  0  0  0  0
 22 34  4  0  0  0  0
 34  1  4  0  0  0  0
 34  6  4  0  0  0  0
  3 35  1  0  0  0  0
M  END
> <CAS>
2381-39-7

> <NAME>
6-METHYLBENZO(A)PYRENE

> <preferred_name>


> <iupac>


> <SMILES>
Cc1c2ccccc2c2ccc3cccc4ccc1c2c43

> <Canonical_QSARr>
Cc1c2ccccc2c2ccc3cccc4ccc1c2c43

> <InChI_Code_QSARr>
InChI=1S/C21H14/c1-13-16-7-2-3-8-18(16)19-12-10-15-6-4-5-14-9-11-17(13)21(19)20(14)15/h2-12H,1H3

> <InChI Key_QSARr>
YFYHJNJCAGHSFA-UHFFFAOYSA-N

> <Salt_Solvent>
?

> <WS Temperature>
25

> <WS Reference>
PEARLMAN,RS ET AL. (1984)

> <dsstox_substance_id>


> <LogMolar>
-8.5234

$$$$
2396-63-6
  -INDIGO-01081615412D

 15 14  0  0  0  0  0  0  0  0999 V2000
    4.8000    0.0000    0.0000 C   0  0  0  0  0  0  0  0  0  0  0  0
    3.2000    0.0000    0.0000 C   0  0  0  0  0  0  0  0  0  0  0  0
    1.5999    0.0000    0.0000 C   0  0  0  0  0  0  0  0  0  0  0  0
    0.0001    0.0000    0.0000 C   0  0  0  0  0  0  0  0  0  0  0  0
   -1.5999    0.0000    0.0000 C   0  0  0  0  0  0  0  0  0  0  0  0
   -3.2000   -0.0000    0.0000 C   0  0  0  0  0  0  0  0  0  0  0  0
   -4.8000   -0.0000    0.0000 C   0  0  0  0  0  0  0  0  0  0  0  0
   -6.4000   -0.0000    0.0000 H   0  0  0  0  0  0  0  0  0  0  0  0
   -1.5999   -1.6000    0.0000 H   0  0  0  0  0  0  0  0  0  0  0  0
   -1.5999    1.6000    0.0000 H   0  0  0  0  0  0  0  0  0  0  0  0
    0.0001    1.6000    0.0000 H   0  0  0  0  0  0  0  0  0  0  0  0
    0.0001   -1.6000    0.0000 H   0  0  0  0  0  0  0  0  0  0  0  0
    1.5999   -1.6000    0.0000 H   0  0  0  0  0  0  0  0  0  0  0  0
    1.5999    1.6000    0.0000 H   0  0  0  0  0  0  0  0  0  0  0  0
    6.4000    0.0000    0.0000 H   0  0  0  0  0  0  0  0  0  0  0  0
  1  2  3  0  0  0  0
  2  3  1  0  0  0  0
  3  4  1  0  0  0  0
  4  5  1  0  0  0  0
  5  6  1  0  0  0  0
  6  7  3  0  0  0  0
  7  8  1  0  0  0  0
  5  9  1  0  0  0  0
  5 10  1  0  0  0  0
  4 11  1  0  0  0  0
  4 12  1  0  0  0  0
  3 13  1  0  0  0  0
  3 14  1  0  0  0  0
  1 15  1  0  0  0  0
M  END
> <CAS>
2396-63-6

> <NAME>
1,6-HEPTADIENE

> <preferred_name>
1,6-Heptadiyne

> <iupac>
hepta-1,6-diyne

> <SMILES>
C#CCCCC#C

> <Canonical_QSARr>
C#CCCCC#C

> <InChI_Code_QSARr>
InChI=1S/C7H8/c1-3-5-7-6-4-2/h1-2H,5-7H2

> <InChI Key_QSARr>
RSPZSDWVQWRAEF-UHFFFAOYSA-N

> <Salt_Solvent>
?

> <WS Temperature>
25

> <WS Reference>
YALKOWSKY,SH & DANNENFELSER,RM (1992)

> <dsstox_substance_id>
DTXSID2062373

> <LogMolar>
-1.7563

$$$$
2404-73-1
  -INDIGO-01081615412D

 34 33  0  0  0  0  0  0  0  0999 V2000
   -2.7713   -3.2000    0.0000 P   0  0  0  0  0  0  0  0  0  0  0  0
   -2.7713   -4.8000    0.0000 C   0  0  0  0  0  0  0  0  0  0  0  0
   -2.7713   -6.4000    0.0000 H   0  0  0  0  0  0  0  0  0  0  0  0
   -4.1569   -5.6001    0.0000 H   0  0  0  0  0  0  0  0  0  0  0  0
   -1.3857   -5.6001    0.0000 H   0  0  0  0  0  0  0  0  0  0  0  0
   -1.1713   -3.2000    0.0000 O   0  0  0  0  0  0  0  0  0  0  0  0
   -4.3712   -3.2000    0.0000 O   0  0  0  0  0  0  0  0  0  0  0  0
   -5.1713   -1.8143    0.0000 C   0  0  0  0  0  0  0  0  0  0  0  0
   -5.9714   -0.4288    0.0000 C   0  0  0  0  0  0  0  0  0  0  0  0
   -6.7712    0.9569    0.0000 C   0  0  0  0  0  0  0  0  0  0  0  0
   -7.5713    2.3425    0.0000 C   0  0  0  0  0  0  0  0  0  0  0  0
   -8.3712    3.7282    0.0000 H   0  0  0  0  0  0  0  0  0  0  0  0
   -9.1713    2.3425    0.0000 H   0  0  0  0  0  0  0  0  0  0  0  0
   -6.7712    3.7282    0.0000 H   0  0  0  0  0  0  0  0  0  0  0  0
   -8.1568    0.1569    0.0000 H   0  0  0  0  0  0  0  0  0  0  0  0
   -5.3857    1.7570    0.0000 H   0  0  0  0  0  0  0  0  0  0  0  0
   -7.3570   -1.2287    0.0000 H   0  0  0  0  0  0  0  0  0  0  0  0
   -4.5856    0.3713    0.0000 H   0  0  0  0  0  0  0  0  0  0  0  0
   -6.5569   -2.6144    0.0000 H   0  0  0  0  0  0  0  0  0  0  0  0
   -3.7857   -1.0144    0.0000 H   0  0  0  0  0  0  0  0  0  0  0  0
   -2.7713   -1.5999    0.0000 O   0  0  0  0  0  0  0  0  0  0  0  0
   -1.3857   -0.8000    0.0000 C   0  0  0  0  0  0  0  0  0  0  0  0
   -0.0001   -0.0001    0.0000 C   0  0  0  0  0  0  0  0  0  0  0  0
    1.3857    0.8000    0.0000 C   0  0  0  0  0  0  0  0  0  0  0  0
    2.7713    1.5999    0.0000 C   0  0  0  0  0  0  0  0  0  0  0  0
    4.1569    2.4000    0.0000 H   0  0  0  0  0  0  0  0  0  0  0  0
    4.1569    0.8000    0.0000 H   0  0  0  0  0  0  0  0  0  0  0  0
    2.7713    3.2000    0.0000 H   0  0  0  0  0  0  0  0  0  0  0  0
    2.1856   -0.5857    0.0000 H   0  0  0  0  0  0  0  0  0  0  0  0
    0.5857    2.1857    0.0000 H   0  0  0  0  0  0  0  0  0  0  0  0
   -0.7999    1.3856    0.0000 H   0  0  0  0  0  0  0  0  0  0  0  0
    0.8000   -1.3856    0.0000 H   0  0  0  0  0  0  0  0  0  0  0  0
   -0.5856   -2.1857    0.0000 H   0  0  0  0  0  0  0  0  0  0  0  0
   -2.1855    0.5857    0.0000 H   0  0  0  0  0  0  0  0  0  0  0  0
  1  2  1  0  0  0  0
  2  3  1  0  0  0  0
  2  4  1  0  0  0  0
  2  5  1  0  0  0  0
  1  6  2  0  0  0  0
  1  7  1  0  0  0  0
  7  8  1  0  0  0  0
  8  9  1  0  0  0  0
  9 10  1  0  0  0  0
 10 11  1  0  0  0  0
 11 12  1  0  0  0  0
 11 13  1  0  0  0  0
 11 14  1  0  0  0  0
 10 15  1  0  0  0  0
 10 16  1  0  0  0  0
  9 17  1  0  0  0  0
  9 18  1  0  0  0  0
  8 19  1  0  0  0  0
  8 20  1  0  0  0  0
  1 21  1  0  0  0  0
 21 22  1  0  0  0  0
 22 23  1  0  0  0  0
 23 24  1  0  0  0  0
 24 25  1  0  0  0  0
 25 26  1  0  0  0  0
 25 27  1  0  0  0  0
 25 28  1  0  0  0  0
 24 29  1  0  0  0  0
 24 30  1  0  0  0  0
 23 31  1  0  0  0  0
 23 32  1  0  0  0  0
 22 33  1  0  0  0  0
 22 34  1  0  0  0  0
M  END
> <CAS>
2404-73-1

> <NAME>
DIBUTYL METHYLPHOSPHONATE

> <preferred_name>
Dibutyl methylphosphonate

> <iupac>
1-(butoxy-methylphosphoryl)oxybutane

> <SMILES>
CP(=O)(OCCCC)OCCCC

> <Canonical_QSARr>
CP(=O)(OCCCC)OCCCC

> <InChI_Code_QSARr>
InChI=1S/C9H21O3P/c1-4-6-8-11-13(3,10)12-9-7-5-2/h4-9H2,1-3H3

> <InChI Key_QSARr>
NPNBLTJGRBYCJB-UHFFFAOYSA-N

> <Salt_Solvent>
?

> <WS Temperature>
25

> <WS Reference>
BEILSTEIN

> <dsstox_substance_id>
DTXSID70178785

> <LogMolar>
-1.4155

$$$$
2425-06-1
  -INDIGO-01081615412D

 27 28  0  0  0  0  0  0  0  0999 V2000
    0.0001    0.0000    0.0000 C   0  0  0  0  0  0  0  0  0  0  0  0
   -1.6000    0.0000    0.0000 C   0  0  0  0  0  0  0  0  0  0  0  0
   -2.1472    1.5035    0.0000 H   0  0  0  0  0  0  0  0  0  0  0  0
   -3.1034    0.5472    0.0000 H   0  0  0  0  0  0  0  0  0  0  0  0
   -2.4000   -1.3856    0.0000 C   0  0  0  0  0  0  0  0  0  0  0  0
   -4.0000   -1.3856    0.0000 H   0  0  0  0  0  0  0  0  0  0  0  0
   -1.6000   -2.7713    0.0000 C   0  0  0  0  0  0  0  0  0  0  0  0
   -2.4000   -4.1569    0.0000 H   0  0  0  0  0  0  0  0  0  0  0  0
    0.0001   -2.7713    0.0000 C   0  0  0  0  0  0  0  0  0  0  0  0
   -0.2778   -4.3470    0.0000 H   0  0  0  0  0  0  0  0  0  0  0  0
    1.2257   -3.7998    0.0000 H   0  0  0  0  0  0  0  0  0  0  0  0
    0.8001   -1.3856    0.0000 C   0  0  0  0  0  0  0  0  0  0  0  0
    1.7405   -2.6800    0.0000 H   0  0  0  0  0  0  0  0  0  0  0  0
    2.3651   -1.0530    0.0000 C   0  0  0  0  0  0  0  0  0  0  0  0
    3.5541   -2.1236    0.0000 O   0  0  0  0  0  0  0  0  0  0  0  0
    2.5322    0.5382    0.0000 N   0  0  0  0  0  0  0  0  0  0  0  0
    3.9180    1.3383    0.0000 S   0  0  0  0  0  0  0  0  0  0  0  0
    5.3035    0.5382    0.0000 C   0  0  0  0  0  0  0  0  0  0  0  0
    6.1036    1.9239    0.0000 Cl  0  0  0  0  0  0  0  0  0  0  0  0
    4.5035   -0.8474    0.0000 Cl  0  0  0  0  0  0  0  0  0  0  0  0
    6.6893   -0.2618    0.0000 C   0  0  0  0  0  0  0  0  0  0  0  0
    8.0748   -1.0618    0.0000 Cl  0  0  0  0  0  0  0  0  0  0  0  0
    8.0748    0.5382    0.0000 Cl  0  0  0  0  0  0  0  0  0  0  0  0
    6.6893   -1.8617    0.0000 H   0  0  0  0  0  0  0  0  0  0  0  0
    1.0706    1.1890    0.0000 C   0  0  0  0  0  0  0  0  0  0  0  0
    0.7380    2.7541    0.0000 O   0  0  0  0  0  0  0  0  0  0  0  0
   -0.6507    1.4617    0.0000 H   0  0  0  0  0  0  0  0  0  0  0  0
  1  2  1  0  0  0  0
  2  3  1  0  0  0  0
  2  4  1  0  0  0  0
  2  5  1  0  0  0  0
  5  6  1  0  0  0  0
  5  7  2  0  0  0  0
  7  8  1  0  0  0  0
  7  9  1  0  0  0  0
  9 10  1  0  0  0  0
  9 11  1  0  0  0  0
  9 12  1  0  0  0  0
 12  1  1  0  0  0  0
 12 13  1  0  0  0  0
 12 14  1  0  0  0  0
 14 15  2  0  0  0  0
 14 16  1  0  0  0  0
 16 17  1  0  0  0  0
 17 18  1  0  0  0  0
 18 19  1  0  0  0  0
 18 20  1  0  0  0  0
 18 21  1  0  0  0  0
 21 22  1  0  0  0  0
 21 23  1  0  0  0  0
 21 24  1  0  0  0  0
 16 25  1  0  0  0  0
 25  1  1  0  0  0  0
 25 26  2  0  0  0  0
  1 27  1  0  0  0  0
M  END
> <CAS>
2425-06-1

> <NAME>
CAPTAFOL

> <preferred_name>
Captafol

> <iupac>
2-[(1,1,2,2-tetrachloroethyl)sulfanyl]-3a,4,7,7a-tetrahydro-1H-isoindole-1,3(2H)-dione

> <SMILES>
O=C1C2CC=CCC2C(=O)N1SC(Cl)(Cl)C(Cl)Cl

> <Canonical_QSARr>
O=C1C2CC=CCC2C(=O)N1SC(Cl)(Cl)C(Cl)Cl

> <InChI_Code_QSARr>
InChI=1S/C10H9Cl4NO2S/c11-9(12)10(13,14)18-15-7(16)5-3-1-2-4-6(5)8(15)17/h1-2,5-6,9H,3-4H2

> <InChI Key_QSARr>
JHRWWRDRBPCWTF-UHFFFAOYSA-N

> <Salt_Solvent>
?

> <WS Temperature>
22

> <WS Reference>
WORTHING,CR & WALKER,SB (1987)

> <dsstox_substance_id>
DTXSID4020242

> <LogMolar>
-5.3968

$$$$
2432-12-4
  -INDIGO-01081615412D

 16 16  0  0  0  0  0  0  0  0999 V2000
    3.2000   -0.0000    0.0000 C   0  0  0  0  0  0  0  0  0  0  0  0
    4.8000    0.0000    0.0000 O   0  0  0  0  0  0  0  0  0  0  0  0
    5.6000   -1.3856    0.0000 H   0  0  0  0  0  0  0  0  0  0  0  0
    2.4000    1.3856    0.0000 C   0  0  0  0  0  0  0  0  0  0  0  0
    3.2000    2.7713    0.0000 Cl  0  0  0  0  0  0  0  0  0  0  0  0
    0.8000    1.3856    0.0000 C   0  0  0  0  0  0  0  0  0  0  0  0
    0.0000    2.7713    0.0000 H   0  0  0  0  0  0  0  0  0  0  0  0
    0.0000   -0.0000    0.0000 C   0  0  0  0  0  0  0  0  0  0  0  0
   -1.6001   -0.0000    0.0000 C   0  0  0  0  0  0  0  0  0  0  0  0
   -3.2000   -0.0000    0.0000 H   0  0  0  0  0  0  0  0  0  0  0  0
   -2.4000    1.3856    0.0000 H   0  0  0  0  0  0  0  0  0  0  0  0
   -2.4000   -1.3856    0.0000 H   0  0  0  0  0  0  0  0  0  0  0  0
    0.8000   -1.3856    0.0000 C   0  0  0  0  0  0  0  0  0  0  0  0
    0.0000   -2.7713    0.0000 H   0  0  0  0  0  0  0  0  0  0  0  0
    2.4000   -1.3856    0.0000 C   0  0  0  0  0  0  0  0  0  0  0  0
    3.2000   -2.7713    0.0000 Cl  0  0  0  0  0  0  0  0  0  0  0  0
  1  2  1  0  0  0  0
  2  3  1  0  0  0  0
  1  4  4  0  0  0  0
  4  5  1  0  0  0  0
  4  6  4  0  0  0  0
  6  7  1  0  0  0  0
  6  8  4  0  0  0  0
  8  9  1  0  0  0  0
  9 10  1  0  0  0  0
  9 11  1  0  0  0  0
  9 12  1  0  0  0  0
  8 13  4  0  0  0  0
 13 14  1  0  0  0  0
 13 15  4  0  0  0  0
 15  1  4  0  0  0  0
 15 16  1  0  0  0  0
M  END
> <CAS>
2432-12-4

> <NAME>
4-METHYL-2,6-DICHLOROPHENOL

> <preferred_name>
2,6-Dichloro-4-methylphenol

> <iupac>
2,6-Dichloro-4-methylphenol

> <SMILES>
Cc1cc(Cl)c(O)c(Cl)c1

> <Canonical_QSARr>
Cc1cc(Cl)c(O)c(Cl)c1

> <InChI_Code_QSARr>
InChI=1S/C7H6Cl2O/c1-4-2-5(8)7(10)6(9)3-4/h2-3,10H,1H3

> <InChI Key_QSARr>
YXEOEPYIBGTLML-UHFFFAOYSA-N

> <Salt_Solvent>
?

> <WS Temperature>
25

> <WS Reference>
BEILSTEIN

> <dsstox_substance_id>
DTXSID1062415

> <LogMolar>
-1.4202

$$$$
2437-79-8
  -INDIGO-01081615412D

 22 23  0  0  0  0  0  0  0  0999 V2000
    0.0001    0.0000    0.0000 C   0  0  0  0  0  0  0  0  0  0  0  0
    0.8001   -1.3856    0.0000 C   0  0  0  0  0  0  0  0  0  0  0  0
    0.0001   -2.7713    0.0000 H   0  0  0  0  0  0  0  0  0  0  0  0
    2.4000   -1.3856    0.0000 C   0  0  0  0  0  0  0  0  0  0  0  0
    3.2000   -2.7713    0.0000 H   0  0  0  0  0  0  0  0  0  0  0  0
    3.2000    0.0000    0.0000 C   0  0  0  0  0  0  0  0  0  0  0  0
    4.8000    0.0000    0.0000 Cl  0  0  0  0  0  0  0  0  0  0  0  0
    2.4000    1.3856    0.0000 C   0  0  0  0  0  0  0  0  0  0  0  0
    3.2000    2.7713    0.0000 H   0  0  0  0  0  0  0  0  0  0  0  0
    0.8001    1.3856    0.0000 C   0  0  0  0  0  0  0  0  0  0  0  0
    0.0001    2.7713    0.0000 Cl  0  0  0  0  0  0  0  0  0  0  0  0
   -1.6001   -0.0000    0.0000 C   0  0  0  0  0  0  0  0  0  0  0  0
   -2.4001    1.3856    0.0000 C   0  0  0  0  0  0  0  0  0  0  0  0
   -1.6001    2.7713    0.0000 H   0  0  0  0  0  0  0  0  0  0  0  0
   -4.0000    1.3856    0.0000 C   0  0  0  0  0  0  0  0  0  0  0  0
   -4.8000    2.7713    0.0000 H   0  0  0  0  0  0  0  0  0  0  0  0
   -4.8000   -0.0000    0.0000 C   0  0  0  0  0  0  0  0  0  0  0  0
   -6.4000   -0.0000    0.0000 Cl  0  0  0  0  0  0  0  0  0  0  0  0
   -4.0000   -1.3856    0.0000 C   0  0  0  0  0  0  0  0  0  0  0  0
   -4.8000   -2.7713    0.0000 H   0  0  0  0  0  0  0  0  0  0  0  0
   -2.4001   -1.3856    0.0000 C   0  0  0  0  0  0  0  0  0  0  0  0
   -1.6001   -2.7713    0.0000 Cl  0  0  0  0  0  0  0  0  0  0  0  0
  1  2  4  0  0  0  0
  2  3  1  0  0  0  0
  2  4  4  0  0  0  0
  4  5  1  0  0  0  0
  4  6  4  0  0  0  0
  6  7  1  0  0  0  0
  6  8  4  0  0  0  0
  8  9  1  0  0  0  0
  8 10  4  0  0  0  0
 10  1  4  0  0  0  0
 10 11  1  0  0  0  0
  1 12  1  0  0  0  0
 12 13  4  0  0  0  0
 13 14  1  0  0  0  0
 13 15  4  0  0  0  0
 15 16  1  0  0  0  0
 15 17  4  0  0  0  0
 17 18  1  0  0  0  0
 17 19  4  0  0  0  0
 19 20  1  0  0  0  0
 19 21  4  0  0  0  0
 21 12  4  0  0  0  0
 21 22  1  0  0  0  0
M  END
> <CAS>
2437-79-8

> <NAME>
2,2',4,4'-TETRACHLOROBIPHENYL

> <preferred_name>
2,2',4,4'-Tetrachlorobiphenyl

> <iupac>
2,2',4,4'-tetrachlorobiphenyl

> <SMILES>
Clc1cc(Cl)c(cc1)-c1ccc(Cl)cc1Cl

> <Canonical_QSARr>
Clc1cc(Cl)c(cc1)-c1ccc(Cl)cc1Cl

> <InChI_Code_QSARr>
InChI=1S/C12H6Cl4/c13-7-1-3-9(11(15)5-7)10-4-2-8(14)6-12(10)16/h1-6H

> <InChI Key_QSARr>
QORAVNMWUNPXAO-UHFFFAOYSA-N

> <Salt_Solvent>
?

> <WS Temperature>
22

> <WS Reference>
YALKOWSKY,SH & DANNENFELSER,RM (1992)

> <dsstox_substance_id>
DTXSID0022513

> <LogMolar>
-6.7322

$$$$
2440-20-2
  -INDIGO-01081615412D

 29 30  0  0  0  0  0  0  0  0999 V2000
    1.3856    2.4000    0.0000 O   0  0  0  0  0  0  0  0  0  0  0  0
    1.3856    0.8000    0.0000 C   0  0  0  0  0  0  0  0  0  0  0  0
    2.7714    0.0000    0.0000 C   0  0  0  0  0  0  0  0  0  0  0  0
    2.7714   -1.6000    0.0000 C   0  0  0  0  0  0  0  0  0  0  0  0
    1.3856   -2.4000    0.0000 H   0  0  0  0  0  0  0  0  0  0  0  0
    4.1569   -2.4000    0.0000 C   0  0  0  0  0  0  0  0  0  0  0  0
    4.1569   -4.0000    0.0000 H   0  0  0  0  0  0  0  0  0  0  0  0
    5.5427   -1.6000    0.0000 C   0  0  0  0  0  0  0  0  0  0  0  0
    6.9282   -2.4000    0.0000 H   0  0  0  0  0  0  0  0  0  0  0  0
    5.5425    0.0000    0.0000 C   0  0  0  0  0  0  0  0  0  0  0  0
    6.9282    0.8000    0.0000 H   0  0  0  0  0  0  0  0  0  0  0  0
    4.1569    0.8000    0.0000 C   0  0  0  0  0  0  0  0  0  0  0  0
    4.1569    2.4000    0.0000 H   0  0  0  0  0  0  0  0  0  0  0  0
   -0.0001    0.0000    0.0000 C   0  0  0  0  0  0  0  0  0  0  0  0
   -1.3856   -0.8000    0.0000 C   0  0  0  0  0  0  0  0  0  0  0  0
   -2.7714    0.0000    0.0000 C   0  0  0  0  0  0  0  0  0  0  0  0
   -2.7714    1.6000    0.0000 H   0  0  0  0  0  0  0  0  0  0  0  0
   -4.1569   -0.8000    0.0000 C   0  0  0  0  0  0  0  0  0  0  0  0
   -5.5425    0.0000    0.0000 H   0  0  0  0  0  0  0  0  0  0  0  0
   -4.1569   -2.4000    0.0000 C   0  0  0  0  0  0  0  0  0  0  0  0
   -5.5425   -3.2000    0.0000 N   0  0  0  0  0  0  0  0  0  0  0  0
   -6.9282   -2.4000    0.0000 H   0  0  0  0  0  0  0  0  0  0  0  0
   -5.5425   -4.8000    0.0000 H   0  0  0  0  0  0  0  0  0  0  0  0
   -2.7712   -3.2000    0.0000 C   0  0  0  0  0  0  0  0  0  0  0  0
   -2.7712   -4.8000    0.0000 H   0  0  0  0  0  0  0  0  0  0  0  0
   -1.3856   -2.4000    0.0000 C   0  0  0  0  0  0  0  0  0  0  0  0
    0.0001   -3.2000    0.0000 H   0  0  0  0  0  0  0  0  0  0  0  0
    0.8000   -1.3856    0.0000 H   0  0  0  0  0  0  0  0  0  0  0  0
   -0.8000    1.3856    0.0000 H   0  0  0  0  0  0  0  0  0  0  0  0
  1  2  2  0  0  0  0
  2  3  1  0  0  0  0
  3  4  4  0  0  0  0
  4  5  1  0  0  0  0
  4  6  4  0  0  0  0
  6  7  1  0  0  0  0
  6  8  4  0  0  0  0
  8  9  1  0  0  0  0
  8 10  4  0  0  0  0
 10 11  1  0  0  0  0
 10 12  4  0  0  0  0
 12  3  4  0  0  0  0
 12 13  1  0  0  0  0
  2 14  1  0  0  0  0
 14 15  1  0  0  0  0
 15 16  4  0  0  0  0
 16 17  1  0  0  0  0
 16 18  4  0  0  0  0
 18 19  1  0  0  0  0
 18 20  4  0  0  0  0
 20 21  1  0  0  0  0
 21 22  1  0  0  0  0
 21 23  1  0  0  0  0
 20 24  4  0  0  0  0
 24 25  1  0  0  0  0
 24 26  4  0  0  0  0
 26 15  4  0  0  0  0
 26 27  1  0  0  0  0
 14 28  1  0  0  0  0
 14 29  1  0  0  0  0
M  END
> <CAS>
2440-20-2

> <NAME>
Ethanone, 2-(4-aminophenyl)-1-phenyl-

> <preferred_name>
2-(4-Aminophenyl)-1-phenylethanone

> <iupac>
C14H13NO

> <SMILES>
Nc1ccc(CC(=O)c2ccccc2)cc1

> <Canonical_QSARr>
Nc1ccc(CC(=O)c2ccccc2)cc1

> <InChI_Code_QSARr>
InChI=1S/C14H13NO/c15-13-8-6-11(7-9-13)10-14(16)12-4-2-1-3-5-12/h1-9H,10,15H2

> <InChI Key_QSARr>
XBDWIJCZQWUMMU-UHFFFAOYSA-N

> <Salt_Solvent>
?

> <WS Temperature>


> <WS Reference>
BEILSTEIN

> <dsstox_substance_id>
DTXSID20467616

> <LogMolar>
-1.805

$$$$
2475-45-8
  -INDIGO-01081615412D

 32 34  0  0  0  0  0  0  0  0999 V2000
   -1.3856    2.4001    0.0000 O   0  0  0  0  0  0  0  0  0  0  0  0
   -1.3856    0.8001    0.0000 C   0  0  0  0  0  0  0  0  0  0  0  0
   -2.7712    0.0000    0.0000 C   0  0  0  0  0  0  0  0  0  0  0  0
   -4.1569    0.7999    0.0000 C   0  0  0  0  0  0  0  0  0  0  0  0
   -4.1569    2.3999    0.0000 N   0  0  0  0  0  0  0  0  0  0  0  0
   -5.5425    3.2000    0.0000 H   0  0  0  0  0  0  0  0  0  0  0  0
   -2.7712    3.2000    0.0000 H   0  0  0  0  0  0  0  0  0  0  0  0
   -5.5425    0.0000    0.0000 C   0  0  0  0  0  0  0  0  0  0  0  0
   -5.5425   -1.6000    0.0000 C   0  0  0  0  0  0  0  0  0  0  0  0
   -4.1569   -2.3999    0.0000 C   0  0  0  0  0  0  0  0  0  0  0  0
   -4.1569   -3.9999    0.0000 N   0  0  0  0  0  0  0  0  0  0  0  0
   -5.5425   -4.8000    0.0000 H   0  0  0  0  0  0  0  0  0  0  0  0
   -2.7712   -4.8000    0.0000 H   0  0  0  0  0  0  0  0  0  0  0  0
   -2.7712   -1.6000    0.0000 C   0  0  0  0  0  0  0  0  0  0  0  0
   -1.3856   -2.3999    0.0000 C   0  0  0  0  0  0  0  0  0  0  0  0
   -1.3856   -3.9999    0.0000 O   0  0  0  0  0  0  0  0  0  0  0  0
   -0.0001   -1.6000    0.0000 C   0  0  0  0  0  0  0  0  0  0  0  0
    1.3856   -2.3999    0.0000 C   0  0  0  0  0  0  0  0  0  0  0  0
    1.3856   -3.9999    0.0000 N   0  0  0  0  0  0  0  0  0  0  0  0
    2.7713   -4.8000    0.0000 H   0  0  0  0  0  0  0  0  0  0  0  0
   -0.0001   -4.8000    0.0000 H   0  0  0  0  0  0  0  0  0  0  0  0
    2.7713   -1.6000    0.0000 C   0  0  0  0  0  0  0  0  0  0  0  0
    2.7713    0.0000    0.0000 C   0  0  0  0  0  0  0  0  0  0  0  0
    1.3856    0.7999    0.0000 C   0  0  0  0  0  0  0  0  0  0  0  0
    1.3856    2.3999    0.0000 N   0  0  0  0  0  0  0  0  0  0  0  0
    2.7713    3.2000    0.0000 H   0  0  0  0  0  0  0  0  0  0  0  0
   -0.0001    3.2000    0.0000 H   0  0  0  0  0  0  0  0  0  0  0  0
   -0.0001    0.0000    0.0000 C   0  0  0  0  0  0  0  0  0  0  0  0
    4.1569    0.7999    0.0000 H   0  0  0  0  0  0  0  0  0  0  0  0
    4.1569   -2.3999    0.0000 H   0  0  0  0  0  0  0  0  0  0  0  0
   -6.9282   -2.3999    0.0000 H   0  0  0  0  0  0  0  0  0  0  0  0
   -6.9282    0.7999    0.0000 H   0  0  0  0  0  0  0  0  0  0  0  0
  1  2  2  0  0  0  0
  2  3  1  0  0  0  0
  3  4  4  0  0  0  0
  4  5  1  0  0  0  0
  5  6  1  0  0  0  0
  5  7  1  0  0  0  0
  4  8  4  0  0  0  0
  8  9  4  0  0  0  0
  9 10  4  0  0  0  0
 10 11  1  0  0  0  0
 11 12  1  0  0  0  0
 11 13  1  0  0  0  0
 10 14  4  0  0  0  0
 14  3  4  0  0  0  0
 14 15  1  0  0  0  0
 15 16  2  0  0  0  0
 15 17  1  0  0  0  0
 17 18  4  0  0  0  0
 18 19  1  0  0  0  0
 19 20  1  0  0  0  0
 19 21  1  0  0  0  0
 18 22  4  0  0  0  0
 22 23  4  0  0  0  0
 23 24  4  0  0  0  0
 24 25  1  0  0  0  0
 25 26  1  0  0  0  0
 25 27  1  0  0  0  0
 24 28  4  0  0  0  0
 28  2  1  0  0  0  0
 28 17  4  0  0  0  0
 23 29  1  0  0  0  0
 22 30  1  0  0  0  0
  9 31  1  0  0  0  0
  8 32  1  0  0  0  0
M  END
> <CAS>
2475-45-8

> <NAME>
1,4,5,8-TETRAAMINOANTHRAQUINONE

> <preferred_name>
C.I. Disperse Blue 1

> <iupac>
1,4,5,8-tetraaminoanthracene-9,10-dione

> <SMILES>
Nc1ccc(N)c2c1C(=O)c1c(C2=O)c(N)ccc1N

> <Canonical_QSARr>
Nc1ccc(N)c2c1C(=O)c1c(C2=O)c(N)ccc1N

> <InChI_Code_QSARr>
InChI=1S/C14H12N4O2/c15-5-1-2-6(16)10-9(5)13(19)11-7(17)3-4-8(18)12(11)14(10)20/h1-4H,15-18H2

> <InChI Key_QSARr>
JSFUMBWFPQSADC-UHFFFAOYSA-N

> <Salt_Solvent>
?

> <WS Temperature>
25

> <WS Reference>
KUROIWA,S & OGASAWARA,S (1973)

> <dsstox_substance_id>
DTXSID7020188

> <LogMolar>
-6.9515

$$$$
2491-32-9
  -INDIGO-01081615412D

 28 29  0  0  0  0  0  0  0  0999 V2000
    1.3855    2.4000    0.0000 O   0  0  0  0  0  0  0  0  0  0  0  0
    1.3855    0.8000    0.0000 C   0  0  0  0  0  0  0  0  0  0  0  0
    2.7713    0.0000    0.0000 C   0  0  0  0  0  0  0  0  0  0  0  0
    2.7713   -1.6000    0.0000 C   0  0  0  0  0  0  0  0  0  0  0  0
    1.3857   -2.4000    0.0000 H   0  0  0  0  0  0  0  0  0  0  0  0
    4.1570   -2.4000    0.0000 C   0  0  0  0  0  0  0  0  0  0  0  0
    4.1570   -4.0000    0.0000 H   0  0  0  0  0  0  0  0  0  0  0  0
    5.5426   -1.6000    0.0000 C   0  0  0  0  0  0  0  0  0  0  0  0
    6.9283   -2.4000    0.0000 O   0  0  0  0  0  0  0  0  0  0  0  0
    8.3138   -1.6000    0.0000 H   0  0  0  0  0  0  0  0  0  0  0  0
    5.5426    0.0000    0.0000 C   0  0  0  0  0  0  0  0  0  0  0  0
    6.9281    0.8000    0.0000 H   0  0  0  0  0  0  0  0  0  0  0  0
    4.1568    0.8000    0.0000 C   0  0  0  0  0  0  0  0  0  0  0  0
    4.1568    2.4000    0.0000 H   0  0  0  0  0  0  0  0  0  0  0  0
    0.0000    0.0000    0.0000 C   0  0  0  0  0  0  0  0  0  0  0  0
   -1.3857   -0.8000    0.0000 C   0  0  0  0  0  0  0  0  0  0  0  0
   -2.7713    0.0000    0.0000 C   0  0  0  0  0  0  0  0  0  0  0  0
   -2.7713    1.6000    0.0000 H   0  0  0  0  0  0  0  0  0  0  0  0
   -4.1570   -0.8000    0.0000 C   0  0  0  0  0  0  0  0  0  0  0  0
   -5.5426    0.0000    0.0000 H   0  0  0  0  0  0  0  0  0  0  0  0
   -4.1570   -2.4000    0.0000 C   0  0  0  0  0  0  0  0  0  0  0  0
   -5.5426   -3.2000    0.0000 H   0  0  0  0  0  0  0  0  0  0  0  0
   -2.7713   -3.2000    0.0000 C   0  0  0  0  0  0  0  0  0  0  0  0
   -2.7713   -4.8000    0.0000 H   0  0  0  0  0  0  0  0  0  0  0  0
   -1.3857   -2.4000    0.0000 C   0  0  0  0  0  0  0  0  0  0  0  0
    0.0000   -3.2000    0.0000 H   0  0  0  0  0  0  0  0  0  0  0  0
    0.8001   -1.3856    0.0000 H   0  0  0  0  0  0  0  0  0  0  0  0
   -0.8001    1.3856    0.0000 H   0  0  0  0  0  0  0  0  0  0  0  0
  1  2  2  0  0  0  0
  2  3  1  0  0  0  0
  3  4  4  0  0  0  0
  4  5  1  0  0  0  0
  4  6  4  0  0  0  0
  6  7  1  0  0  0  0
  6  8  4  0  0  0  0
  8  9  1  0  0  0  0
  9 10  1  0  0  0  0
  8 11  4  0  0  0  0
 11 12  1  0  0  0  0
 11 13  4  0  0  0  0
 13  3  4  0  0  0  0
 13 14  1  0  0  0  0
  2 15  1  0  0  0  0
 15 16  1  0  0  0  0
 16 17  4  0  0  0  0
 17 18  1  0  0  0  0
 17 19  4  0  0  0  0
 19 20  1  0  0  0  0
 19 21  4  0  0  0  0
 21 22  1  0  0  0  0
 21 23  4  0  0  0  0
 23 24  1  0  0  0  0
 23 25  4  0  0  0  0
 25 16  4  0  0  0  0
 25 26  1  0  0  0  0
 15 27  1  0  0  0  0
 15 28  1  0  0  0  0
M  END
> <CAS>
2491-32-9

> <NAME>
Ethanone, 1-(4-hydroxyphenyl)-2-phenyl-

> <preferred_name>
Benzyl 4-hydroxyphenyl ketone

> <iupac>
1-(4-hydroxyphenyl)-2-phenylethanone

> <SMILES>
Oc1ccc(cc1)C(=O)Cc1ccccc1

> <Canonical_QSARr>
Oc1ccc(cc1)C(=O)Cc1ccccc1

> <InChI_Code_QSARr>
InChI=1S/C14H12O2/c15-13-8-6-12(7-9-13)14(16)10-11-4-2-1-3-5-11/h1-9,15H,10H2

> <InChI Key_QSARr>
JBQTZLNCDIFCCO-UHFFFAOYSA-N

> <Salt_Solvent>
?

> <WS Temperature>


> <WS Reference>
BEILSTEIN

> <dsstox_substance_id>
DTXSID30179617

> <LogMolar>
-1.5008

$$$$
2498-77-3
  -INDIGO-01081615412D

 33 36  0  0  0  0  0  0  0  0999 V2000
   -1.6000    0.0001    0.0000 C   0  0  0  0  0  0  0  0  0  0  0  0
   -2.4000    1.3856    0.0000 C   0  0  0  0  0  0  0  0  0  0  0  0
   -1.6000    2.7712    0.0000 H   0  0  0  0  0  0  0  0  0  0  0  0
   -4.0000    1.3856    0.0000 C   0  0  0  0  0  0  0  0  0  0  0  0
   -4.8000    2.7712    0.0000 C   0  0  0  0  0  0  0  0  0  0  0  0
   -6.4000    2.7712    0.0000 C   0  0  0  0  0  0  0  0  0  0  0  0
   -7.2000    1.3856    0.0000 C   0  0  0  0  0  0  0  0  0  0  0  0
   -6.4000    0.0001    0.0000 C   0  0  0  0  0  0  0  0  0  0  0  0
   -7.2000   -1.3856    0.0000 H   0  0  0  0  0  0  0  0  0  0  0  0
   -4.8000    0.0001    0.0000 C   0  0  0  0  0  0  0  0  0  0  0  0
   -4.0000   -1.3856    0.0000 C   0  0  0  0  0  0  0  0  0  0  0  0
   -4.8000   -2.7712    0.0000 H   0  0  0  0  0  0  0  0  0  0  0  0
   -2.4000   -1.3856    0.0000 C   0  0  0  0  0  0  0  0  0  0  0  0
   -1.6000   -2.7712    0.0000 C   0  0  0  0  0  0  0  0  0  0  0  0
   -2.4000   -4.1569    0.0000 H   0  0  0  0  0  0  0  0  0  0  0  0
    0.0000   -2.7712    0.0000 C   0  0  0  0  0  0  0  0  0  0  0  0
    0.8000   -4.1569    0.0000 H   0  0  0  0  0  0  0  0  0  0  0  0
    0.8000   -1.3856    0.0000 C   0  0  0  0  0  0  0  0  0  0  0  0
    2.4000   -1.3856    0.0000 C   0  0  0  0  0  0  0  0  0  0  0  0
    3.2000    0.0001    0.0000 C   0  0  0  0  0  0  0  0  0  0  0  0
    2.4000    1.3856    0.0000 C   0  0  0  0  0  0  0  0  0  0  0  0
    0.8000    1.3856    0.0000 C   0  0  0  0  0  0  0  0  0  0  0  0
    0.0000    2.7712    0.0000 C   0  0  0  0  0  0  0  0  0  0  0  0
    0.8000    4.1569    0.0000 H   0  0  0  0  0  0  0  0  0  0  0  0
   -0.8000    4.1569    0.0000 H   0  0  0  0  0  0  0  0  0  0  0  0
    1.6000    2.7712    0.0000 H   0  0  0  0  0  0  0  0  0  0  0  0
    0.0000    0.0001    0.0000 C   0  0  0  0  0  0  0  0  0  0  0  0
    3.2000    2.7712    0.0000 H   0  0  0  0  0  0  0  0  0  0  0  0
    4.8000    0.0001    0.0000 H   0  0  0  0  0  0  0  0  0  0  0  0
    3.2000   -2.7712    0.0000 H   0  0  0  0  0  0  0  0  0  0  0  0
   -8.8000    1.3856    0.0000 H   0  0  0  0  0  0  0  0  0  0  0  0
   -7.2000    4.1569    0.0000 H   0  0  0  0  0  0  0  0  0  0  0  0
   -4.0000    4.1569    0.0000 H   0  0  0  0  0  0  0  0  0  0  0  0
  1  2  4  0  0  0  0
  2  3  1  0  0  0  0
  2  4  4  0  0  0  0
  4  5  4  0  0  0  0
  5  6  4  0  0  0  0
  6  7  4  0  0  0  0
  7  8  4  0  0  0  0
  8  9  1  0  0  0  0
  8 10  4  0  0  0  0
 10  4  4  0  0  0  0
 10 11  4  0  0  0  0
 11 12  1  0  0  0  0
 11 13  4  0  0  0  0
 13  1  4  0  0  0  0
 13 14  4  0  0  0  0
 14 15  1  0  0  0  0
 14 16  4  0  0  0  0
 16 17  1  0  0  0  0
 16 18  4  0  0  0  0
 18 19  4  0  0  0  0
 19 20  4  0  0  0  0
 20 21  4  0  0  0  0
 21 22  4  0  0  0  0
 22 23  1  0  0  0  0
 23 24  1  0  0  0  0
 23 25  1  0  0  0  0
 23 26  1  0  0  0  0
 22 27  4  0  0  0  0
 27  1  4  0  0  0  0
 27 18  4  0  0  0  0
 21 28  1  0  0  0  0
 20 29  1  0  0  0  0
 19 30  1  0  0  0  0
  7 31  1  0  0  0  0
  6 32  1  0  0  0  0
  5 33  1  0  0  0  0
M  END
> <CAS>
2498-77-3

> <NAME>
1-METHYLBENZ(A)ANTHRACENE

> <preferred_name>
1-Methylbenz(a)anthracene

> <iupac>
1-methylbenzo[a]anthracene

> <SMILES>
Cc1cccc2ccc3cc4ccccc4cc3c21

> <Canonical_QSARr>
Cc1cccc2ccc3cc4ccccc4cc3c21

> <InChI_Code_QSARr>
InChI=1S/C19H14/c1-13-5-4-8-14-9-10-17-11-15-6-2-3-7-16(15)12-18(17)19(13)14/h2-12H,1H3

> <InChI Key_QSARr>
MWMBCXXTFFHALK-UHFFFAOYSA-N

> <Salt_Solvent>
?

> <WS Temperature>
27

> <WS Reference>
YALKOWSKY,SH & DANNENFELSER,RM (1992)

> <dsstox_substance_id>
DTXSID50179699

> <LogMolar>
-6.644

$$$$
2528-36-1
  -INDIGO-01081615412D

 42 42  0  0  0  0  0  0  0  0999 V2000
    6.9855    2.6143    0.0000 C   0  0  0  0  0  0  0  0  0  0  0  0
    6.1857    4.0000    0.0000 C   0  0  0  0  0  0  0  0  0  0  0  0
    6.9855    5.3856    0.0000 H   0  0  0  0  0  0  0  0  0  0  0  0
    4.5856    4.0000    0.0000 C   0  0  0  0  0  0  0  0  0  0  0  0
    3.7858    5.3856    0.0000 H   0  0  0  0  0  0  0  0  0  0  0  0
    3.7858    2.6143    0.0000 C   0  0  0  0  0  0  0  0  0  0  0  0
    2.1856    2.6143    0.0000 O   0  0  0  0  0  0  0  0  0  0  0  0
    1.3856    4.0000    0.0000 P   0  0  0  0  0  0  0  0  0  0  0  0
    0.5855    5.3856    0.0000 O   0  0  0  0  0  0  0  0  0  0  0  0
   -1.0144    5.3856    0.0000 C   0  0  0  0  0  0  0  0  0  0  0  0
   -2.6145    5.3856    0.0000 C   0  0  0  0  0  0  0  0  0  0  0  0
   -4.2144    5.3856    0.0000 C   0  0  0  0  0  0  0  0  0  0  0  0
   -5.8145    5.3856    0.0000 C   0  0  0  0  0  0  0  0  0  0  0  0
   -7.4144    5.3856    0.0000 H   0  0  0  0  0  0  0  0  0  0  0  0
   -6.6143    6.7713    0.0000 H   0  0  0  0  0  0  0  0  0  0  0  0
   -6.6143    4.0000    0.0000 H   0  0  0  0  0  0  0  0  0  0  0  0
   -4.2144    6.9856    0.0000 H   0  0  0  0  0  0  0  0  0  0  0  0
   -4.2144    3.7856    0.0000 H   0  0  0  0  0  0  0  0  0  0  0  0
   -2.6145    6.9856    0.0000 H   0  0  0  0  0  0  0  0  0  0  0  0
   -2.6145    3.7856    0.0000 H   0  0  0  0  0  0  0  0  0  0  0  0
   -1.0144    6.9856    0.0000 H   0  0  0  0  0  0  0  0  0  0  0  0
   -1.0144    3.7856    0.0000 H   0  0  0  0  0  0  0  0  0  0  0  0
    0.0001    3.2001    0.0000 O   0  0  0  0  0  0  0  0  0  0  0  0
    0.0001    1.6001    0.0000 C   0  0  0  0  0  0  0  0  0  0  0  0
    0.0001    0.0000    0.0000 C   0  0  0  0  0  0  0  0  0  0  0  0
    0.0001   -1.6000    0.0000 C   0  0  0  0  0  0  0  0  0  0  0  0
    0.0001   -3.2000    0.0000 C   0  0  0  0  0  0  0  0  0  0  0  0
    0.0001   -4.8000    0.0000 H   0  0  0  0  0  0  0  0  0  0  0  0
   -1.3857   -4.0001    0.0000 H   0  0  0  0  0  0  0  0  0  0  0  0
    1.3856   -4.0001    0.0000 H   0  0  0  0  0  0  0  0  0  0  0  0
   -1.6001   -1.6000    0.0000 H   0  0  0  0  0  0  0  0  0  0  0  0
    1.5999   -1.6000    0.0000 H   0  0  0  0  0  0  0  0  0  0  0  0
   -1.6001    0.0000    0.0000 H   0  0  0  0  0  0  0  0  0  0  0  0
    1.5999    0.0000    0.0000 H   0  0  0  0  0  0  0  0  0  0  0  0
   -1.6001    1.6001    0.0000 H   0  0  0  0  0  0  0  0  0  0  0  0
    1.5999    1.6001    0.0000 H   0  0  0  0  0  0  0  0  0  0  0  0
    2.7713    4.8001    0.0000 O   0  0  0  0  0  0  0  0  0  0  0  0
    4.5856    1.2287    0.0000 C   0  0  0  0  0  0  0  0  0  0  0  0
    3.7858   -0.1570    0.0000 H   0  0  0  0  0  0  0  0  0  0  0  0
    6.1857    1.2287    0.0000 C   0  0  0  0  0  0  0  0  0  0  0  0
    6.9855   -0.1570    0.0000 H   0  0  0  0  0  0  0  0  0  0  0  0
    8.5856    2.6143    0.0000 H   0  0  0  0  0  0  0  0  0  0  0  0
  1  2  4  0  0  0  0
  2  3  1  0  0  0  0
  2  4  4  0  0  0  0
  4  5  1  0  0  0  0
  4  6  4  0  0  0  0
  6  7  1  0  0  0  0
  7  8  1  0  0  0  0
  8  9  1  0  0  0  0
  9 10  1  0  0  0  0
 10 11  1  0  0  0  0
 11 12  1  0  0  0  0
 12 13  1  0  0  0  0
 13 14  1  0  0  0  0
 13 15  1  0  0  0  0
 13 16  1  0  0  0  0
 12 17  1  0  0  0  0
 12 18  1  0  0  0  0
 11 19  1  0  0  0  0
 11 20  1  0  0  0  0
 10 21  1  0  0  0  0
 10 22  1  0  0  0  0
  8 23  1  0  0  0  0
 23 24  1  0  0  0  0
 24 25  1  0  0  0  0
 25 26  1  0  0  0  0
 26 27  1  0  0  0  0
 27 28  1  0  0  0  0
 27 29  1  0  0  0  0
 27 30  1  0  0  0  0
 26 31  1  0  0  0  0
 26 32  1  0  0  0  0
 25 33  1  0  0  0  0
 25 34  1  0  0  0  0
 24 35  1  0  0  0  0
 24 36  1  0  0  0  0
  8 37  2  0  0  0  0
  6 38  4  0  0  0  0
 38 39  1  0  0  0  0
 38 40  4  0  0  0  0
 40  1  4  0  0  0  0
 40 41  1  0  0  0  0
  1 42  1  0  0  0  0
M  END
> <CAS>
2528-36-1

> <NAME>
DIBUTYL PHENYL PHOSPHATE

> <preferred_name>
Dibutyl phenyl phosphate

> <iupac>
dibutyl phenyl phosphate

> <SMILES>
CCCCOP(=O)(Oc1ccccc1)OCCCC

> <Canonical_QSARr>
CCCCOP(=O)(Oc1ccccc1)OCCCC

> <InChI_Code_QSARr>
InChI=1S/C14H23O4P/c1-3-5-12-16-19(15,17-13-6-4-2)18-14-10-8-7-9-11-14/h7-11H,3-6,12-13H2,1-2H3

> <InChI Key_QSARr>
YICSVBJRVMLQNS-UHFFFAOYSA-N

> <Salt_Solvent>
?

> <WS Temperature>
25

> <WS Reference>
SAEGER,VW ET AL. (1979)

> <dsstox_substance_id>
DTXSID2024957

> <LogMolar>
-3.4746

$$$$
2540-82-1
  -INDIGO-01081615412D

 26 25  0  0  0  0  0  0  0  0999 V2000
    0.0000   -0.0000    0.0000 P   0  0  0  0  0  0  0  0  0  0  0  0
   -1.3857   -0.8000    0.0000 O   0  0  0  0  0  0  0  0  0  0  0  0
   -2.7712   -0.0000    0.0000 C   0  0  0  0  0  0  0  0  0  0  0  0
   -4.1569    0.8000    0.0000 H   0  0  0  0  0  0  0  0  0  0  0  0
   -4.1569   -0.8000    0.0000 H   0  0  0  0  0  0  0  0  0  0  0  0
   -2.7712    1.6000    0.0000 H   0  0  0  0  0  0  0  0  0  0  0  0
   -0.8000    1.3857    0.0000 O   0  0  0  0  0  0  0  0  0  0  0  0
    0.0000    2.7713    0.0000 C   0  0  0  0  0  0  0  0  0  0  0  0
    0.8000    4.1569    0.0000 H   0  0  0  0  0  0  0  0  0  0  0  0
   -0.8000    4.1569    0.0000 H   0  0  0  0  0  0  0  0  0  0  0  0
    1.6000    2.7713    0.0000 H   0  0  0  0  0  0  0  0  0  0  0  0
    0.8000   -1.3857    0.0000 S   0  0  0  0  0  0  0  0  0  0  0  0
    1.3857    0.8000    0.0000 S   0  0  0  0  0  0  0  0  0  0  0  0
    2.7712   -0.0000    0.0000 C   0  0  0  0  0  0  0  0  0  0  0  0
    4.1569   -0.8000    0.0000 C   0  0  0  0  0  0  0  0  0  0  0  0
    4.1569   -2.4000    0.0000 O   0  0  0  0  0  0  0  0  0  0  0  0
    5.5426   -0.0000    0.0000 N   0  0  0  0  0  0  0  0  0  0  0  0
    6.9281   -0.8000    0.0000 C   0  0  0  0  0  0  0  0  0  0  0  0
    8.3138   -1.6000    0.0000 H   0  0  0  0  0  0  0  0  0  0  0  0
    8.3138   -0.0000    0.0000 H   0  0  0  0  0  0  0  0  0  0  0  0
    6.9281   -2.4000    0.0000 H   0  0  0  0  0  0  0  0  0  0  0  0
    5.5426    1.6000    0.0000 C   0  0  0  0  0  0  0  0  0  0  0  0
    6.9281    2.4000    0.0000 O   0  0  0  0  0  0  0  0  0  0  0  0
    4.1569    2.4000    0.0000 H   0  0  0  0  0  0  0  0  0  0  0  0
    3.5712    1.3857    0.0000 H   0  0  0  0  0  0  0  0  0  0  0  0
    1.9712   -1.3857    0.0000 H   0  0  0  0  0  0  0  0  0  0  0  0
  1  2  1  0  0  0  0
  2  3  1  0  0  0  0
  3  4  1  0  0  0  0
  3  5  1  0  0  0  0
  3  6  1  0  0  0  0
  1  7  1  0  0  0  0
  7  8  1  0  0  0  0
  8  9  1  0  0  0  0
  8 10  1  0  0  0  0
  8 11  1  0  0  0  0
  1 12  2  0  0  0  0
  1 13  1  0  0  0  0
 13 14  1  0  0  0  0
 14 15  1  0  0  0  0
 15 16  2  0  0  0  0
 15 17  1  0  0  0  0
 17 18  1  0  0  0  0
 18 19  1  0  0  0  0
 18 20  1  0  0  0  0
 18 21  1  0  0  0  0
 17 22  1  0  0  0  0
 22 23  2  0  0  0  0
 22 24  1  0  0  0  0
 14 25  1  0  0  0  0
 14 26  1  0  0  0  0
M  END
> <CAS>
2540-82-1

> <NAME>
FORMOTHION

> <preferred_name>
Formothion

> <iupac>
S-{2-[formyl(methyl)amino]-2-oxoethyl} O,O-dimethyl phosphorodithioate

> <SMILES>
CN(C=O)C(=O)CSP(=S)(OC)OC

> <Canonical_QSARr>
CN(C=O)C(=O)CSP(=S)(OC)OC

> <InChI_Code_QSARr>
InChI=1S/C6H12NO4PS2/c1-7(5-8)6(9)4-14-12(13,10-2)11-3/h5H,4H2,1-3H3

> <InChI Key_QSARr>
AIKKULXCBHRFOS-UHFFFAOYSA-N

> <Salt_Solvent>
?

> <WS Temperature>
24

> <WS Reference>
YALKOWSKY,SH & HE,Y (2003)

> <dsstox_substance_id>
DTXSID4041991

> <LogMolar>
-1.9954

$$$$
2563-99-7
  -INDIGO-01081615412D

 19 19  0  0  0  0  0  0  0  0999 V2000
    4.8000    0.0000    0.0000 Cl  0  0  0  0  0  0  0  0  0  0  0  0
    4.0001   -1.3856    0.0000 C   0  0  0  0  0  0  0  0  0  0  0  0
    2.3999   -1.3856    0.0000 C   0  0  0  0  0  0  0  0  0  0  0  0
    1.6000    0.0000    0.0000 N   0  0  0  0  0  0  0  0  0  0  0  0
    0.0000   -0.0000    0.0000 C   0  0  0  0  0  0  0  0  0  0  0  0
   -0.8000    1.3856    0.0000 C   0  0  0  0  0  0  0  0  0  0  0  0
    0.0000    2.7713    0.0000 H   0  0  0  0  0  0  0  0  0  0  0  0
   -2.4001    1.3856    0.0000 C   0  0  0  0  0  0  0  0  0  0  0  0
   -3.2000    2.7713    0.0000 H   0  0  0  0  0  0  0  0  0  0  0  0
   -3.2000   -0.0000    0.0000 C   0  0  0  0  0  0  0  0  0  0  0  0
   -4.8000   -0.0000    0.0000 H   0  0  0  0  0  0  0  0  0  0  0  0
   -2.4001   -1.3856    0.0000 C   0  0  0  0  0  0  0  0  0  0  0  0
   -3.2000   -2.7713    0.0000 H   0  0  0  0  0  0  0  0  0  0  0  0
   -0.8000   -1.3856    0.0000 C   0  0  0  0  0  0  0  0  0  0  0  0
    0.0000   -2.7713    0.0000 H   0  0  0  0  0  0  0  0  0  0  0  0
    2.3999    1.3856    0.0000 H   0  0  0  0  0  0  0  0  0  0  0  0
    1.6000   -2.7713    0.0000 O   0  0  0  0  0  0  0  0  0  0  0  0
    5.6000   -1.3856    0.0000 Cl  0  0  0  0  0  0  0  0  0  0  0  0
    4.8000   -2.7713    0.0000 H   0  0  0  0  0  0  0  0  0  0  0  0
  1  2  1  0  0  0  0
  2  3  1  0  0  0  0
  3  4  1  0  0  0  0
  4  5  1  0  0  0  0
  5  6  4  0  0  0  0
  6  7  1  0  0  0  0
  6  8  4  0  0  0  0
  8  9  1  0  0  0  0
  8 10  4  0  0  0  0
 10 11  1  0  0  0  0
 10 12  4  0  0  0  0
 12 13  1  0  0  0  0
 12 14  4  0  0  0  0
 14  5  4  0  0  0  0
 14 15  1  0  0  0  0
  4 16  1  0  0  0  0
  3 17  2  0  0  0  0
  2 18  1  0  0  0  0
  2 19  1  0  0  0  0
M  END
> <CAS>
2563-99-7

> <NAME>
Acetamide, 2,2-dichloro-N-phenyl-

> <preferred_name>
Acetanilide, dichloro-

> <iupac>
2,2-dichloro-N-phenylacetamide

> <SMILES>
O=C(Nc1ccccc1)C(Cl)Cl

> <Canonical_QSARr>
O=C(Nc1ccccc1)C(Cl)Cl

> <InChI_Code_QSARr>
InChI=1S/C8H7Cl2NO/c9-7(10)8(12)11-6-4-2-1-3-5-6/h1-5,7H,(H,11,12)

> <InChI Key_QSARr>
KJSVAEGLTPBKAA-UHFFFAOYSA-N

> <Salt_Solvent>
?

> <WS Temperature>
20

> <WS Reference>
BEILSTEIN

> <dsstox_substance_id>
DTXSID40185507

> <LogMolar>
-3.3555

$$$$
2581-69-3
  -INDIGO-01081615412D

 38 40  0  0  0  0  0  0  0  0999 V2000
   -0.0001   -0.0000    0.0000 C   0  0  0  0  0  0  0  0  0  0  0  0
   -0.8001    1.3856    0.0000 C   0  0  0  0  0  0  0  0  0  0  0  0
   -0.0001    2.7713    0.0000 H   0  0  0  0  0  0  0  0  0  0  0  0
   -2.4001    1.3856    0.0000 C   0  0  0  0  0  0  0  0  0  0  0  0
   -3.2001    2.7713    0.0000 H   0  0  0  0  0  0  0  0  0  0  0  0
   -3.2001   -0.0000    0.0000 C   0  0  0  0  0  0  0  0  0  0  0  0
   -4.7998   -0.0000    0.0000 N   0  0  0  0  0  0  0  0  0  0  0  0
   -5.5999    1.3856    0.0000 N   0  0  0  0  0  0  0  0  0  0  0  0
   -7.1999    1.3856    0.0000 C   0  0  0  0  0  0  0  0  0  0  0  0
   -7.9999    2.7713    0.0000 C   0  0  0  0  0  0  0  0  0  0  0  0
   -7.1999    4.1569    0.0000 H   0  0  0  0  0  0  0  0  0  0  0  0
   -9.5999    2.7713    0.0000 C   0  0  0  0  0  0  0  0  0  0  0  0
  -10.4000    4.1569    0.0000 H   0  0  0  0  0  0  0  0  0  0  0  0
  -10.4000    1.3856    0.0000 C   0  0  0  0  0  0  0  0  0  0  0  0
  -12.0000    1.3856    0.0000 N   0  0  0  0  0  0  0  0  0  0  0  0
  -12.8000    2.7713    0.0000 O   0  0  0  0  0  0  0  0  0  0  0  0
  -12.8000   -0.0000    0.0000 O   0  0  0  0  0  0  0  0  0  0  0  0
   -9.5999   -0.0000    0.0000 C   0  0  0  0  0  0  0  0  0  0  0  0
  -10.4000   -1.3856    0.0000 H   0  0  0  0  0  0  0  0  0  0  0  0
   -7.9999   -0.0000    0.0000 C   0  0  0  0  0  0  0  0  0  0  0  0
   -7.1999   -1.3856    0.0000 H   0  0  0  0  0  0  0  0  0  0  0  0
   -2.4001   -1.3856    0.0000 C   0  0  0  0  0  0  0  0  0  0  0  0
   -3.2001   -2.7713    0.0000 H   0  0  0  0  0  0  0  0  0  0  0  0
   -0.8001   -1.3856    0.0000 C   0  0  0  0  0  0  0  0  0  0  0  0
   -0.0001   -2.7713    0.0000 H   0  0  0  0  0  0  0  0  0  0  0  0
    1.6000   -0.0000    0.0000 N   0  0  0  0  0  0  0  0  0  0  0  0
    2.9858   -0.8000    0.0000 C   0  0  0  0  0  0  0  0  0  0  0  0
    2.9858   -2.4000    0.0000 C   0  0  0  0  0  0  0  0  0  0  0  0
    1.6000   -3.2000    0.0000 H   0  0  0  0  0  0  0  0  0  0  0  0
    4.3713   -3.2000    0.0000 C   0  0  0  0  0  0  0  0  0  0  0  0
    4.3713   -4.8000    0.0000 H   0  0  0  0  0  0  0  0  0  0  0  0
    5.7571   -2.4000    0.0000 C   0  0  0  0  0  0  0  0  0  0  0  0
    7.1426   -3.2000    0.0000 H   0  0  0  0  0  0  0  0  0  0  0  0
    5.7571   -0.8000    0.0000 C   0  0  0  0  0  0  0  0  0  0  0  0
    7.1426   -0.0000    0.0000 H   0  0  0  0  0  0  0  0  0  0  0  0
    4.3713   -0.0000    0.0000 C   0  0  0  0  0  0  0  0  0  0  0  0
    4.3713    1.6000    0.0000 H   0  0  0  0  0  0  0  0  0  0  0  0
    2.1471    1.5035    0.0000 H   0  0  0  0  0  0  0  0  0  0  0  0
  1  2  4  0  0  0  0
  2  3  1  0  0  0  0
  2  4  4  0  0  0  0
  4  5  1  0  0  0  0
  4  6  4  0  0  0  0
  6  7  1  0  0  0  0
  7  8  2  0  0  0  0
  8  9  1  0  0  0  0
  9 10  4  0  0  0  0
 10 11  1  0  0  0  0
 10 12  4  0  0  0  0
 12 13  1  0  0  0  0
 12 14  4  0  0  0  0
 14 15  1  0  0  0  0
 15 16  1  0  0  0  0
 15 17  2  0  0  0  0
 14 18  4  0  0  0  0
 18 19  1  0  0  0  0
 18 20  4  0  0  0  0
 20  9  4  0  0  0  0
 20 21  1  0  0  0  0
  6 22  4  0  0  0  0
 22 23  1  0  0  0  0
 22 24  4  0  0  0  0
 24  1  4  0  0  0  0
 24 25  1  0  0  0  0
  1 26  1  0  0  0  0
 26 27  1  0  0  0  0
 27 28  4  0  0  0  0
 28 29  1  0  0  0  0
 28 30  4  0  0  0  0
 30 31  1  0  0  0  0
 30 32  4  0  0  0  0
 32 33  1  0  0  0  0
 32 34  4  0  0  0  0
 34 35  1  0  0  0  0
 34 36  4  0  0  0  0
 36 27  4  0  0  0  0
 36 37  1  0  0  0  0
 26 38  1  0  0  0  0
M  CHG  2  15   1  16  -1
M  END
> <CAS>
2581-69-3

> <NAME>
C.I. DISPERSE ORANGE 1

> <preferred_name>
Benzenamine, 4-[(4-nitrophenyl)azo]-N-phenyl-

> <iupac>
4-(4-nitrophenyl)diazenyl-N-phenylaniline

> <SMILES>
[O-][N+](=O)c1ccc(cc1)N=Nc1ccc(cc1)Nc1ccccc1

> <Canonical_QSARr>
[O-][N+](=O)c1ccc(cc1)N=Nc1ccc(cc1)Nc1ccccc1

> <InChI_Code_QSARr>
InChI=1S/C18H14N4O2/c23-22(24)18-12-10-17(11-13-18)21-20-16-8-6-15(7-9-16)19-14-4-2-1-3-5-14/h1-13,19H/b21-20+

> <InChI Key_QSARr>
YFVXLROHJBSEDW-QZQOTICOSA-N

> <Salt_Solvent>
?

> <WS Temperature>
25

> <WS Reference>
BAUGHMAN,GL & PERENICH,TA (1988)

> <dsstox_substance_id>
DTXSID7062536

> <LogMolar>
-7.5229

$$$$
2588-04-7
  -INDIGO-01081615412D

 32 31  0  0  0  0  0  0  0  0999 V2000
   -4.0000   -1.3856    0.0000 P   0  0  0  0  0  0  0  0  0  0  0  0
   -4.8000   -2.7713    0.0000 O   0  0  0  0  0  0  0  0  0  0  0  0
   -6.4001   -2.7713    0.0000 C   0  0  0  0  0  0  0  0  0  0  0  0
   -7.9999   -2.7713    0.0000 C   0  0  0  0  0  0  0  0  0  0  0  0
   -9.6000   -2.7713    0.0000 H   0  0  0  0  0  0  0  0  0  0  0  0
   -8.8000   -4.1570    0.0000 H   0  0  0  0  0  0  0  0  0  0  0  0
   -8.8000   -1.3856    0.0000 H   0  0  0  0  0  0  0  0  0  0  0  0
   -6.4001   -4.3713    0.0000 H   0  0  0  0  0  0  0  0  0  0  0  0
   -6.4001   -1.1713    0.0000 H   0  0  0  0  0  0  0  0  0  0  0  0
   -5.3856   -0.5857    0.0000 O   0  0  0  0  0  0  0  0  0  0  0  0
   -5.3856    1.0143    0.0000 C   0  0  0  0  0  0  0  0  0  0  0  0
   -5.3856    2.6144    0.0000 C   0  0  0  0  0  0  0  0  0  0  0  0
   -5.3856    4.2144    0.0000 H   0  0  0  0  0  0  0  0  0  0  0  0
   -6.7712    3.4144    0.0000 H   0  0  0  0  0  0  0  0  0  0  0  0
   -4.0000    3.4144    0.0000 H   0  0  0  0  0  0  0  0  0  0  0  0
   -6.9857    1.0143    0.0000 H   0  0  0  0  0  0  0  0  0  0  0  0
   -3.7857    1.0143    0.0000 H   0  0  0  0  0  0  0  0  0  0  0  0
   -2.6143   -2.1857    0.0000 S   0  0  0  0  0  0  0  0  0  0  0  0
   -3.1999   -0.0001    0.0000 S   0  0  0  0  0  0  0  0  0  0  0  0
   -1.6001   -0.0001    0.0000 C   0  0  0  0  0  0  0  0  0  0  0  0
    0.0000   -0.0001    0.0000 S   0  0  0  0  0  0  0  0  0  0  0  0
    0.0000    1.6000    0.0000 O   0  0  0  0  0  0  0  0  0  0  0  0
    0.0000   -1.6001    0.0000 O   0  0  0  0  0  0  0  0  0  0  0  0
    1.6001   -0.0001    0.0000 C   0  0  0  0  0  0  0  0  0  0  0  0
    3.1999   -0.0001    0.0000 C   0  0  0  0  0  0  0  0  0  0  0  0
    4.8000   -0.0001    0.0000 H   0  0  0  0  0  0  0  0  0  0  0  0
    4.0000   -1.3856    0.0000 H   0  0  0  0  0  0  0  0  0  0  0  0
    4.0000    1.3856    0.0000 H   0  0  0  0  0  0  0  0  0  0  0  0
    1.6001   -1.6001    0.0000 H   0  0  0  0  0  0  0  0  0  0  0  0
    1.6001    1.6000    0.0000 H   0  0  0  0  0  0  0  0  0  0  0  0
   -1.6001   -1.6001    0.0000 H   0  0  0  0  0  0  0  0  0  0  0  0
   -1.6001    1.6000    0.0000 H   0  0  0  0  0  0  0  0  0  0  0  0
  1  2  1  0  0  0  0
  2  3  1  0  0  0  0
  3  4  1  0  0  0  0
  4  5  1  0  0  0  0
  4  6  1  0  0  0  0
  4  7  1  0  0  0  0
  3  8  1  0  0  0  0
  3  9  1  0  0  0  0
  1 10  1  0  0  0  0
 10 11  1  0  0  0  0
 11 12  1  0  0  0  0
 12 13  1  0  0  0  0
 12 14  1  0  0  0  0
 12 15  1  0  0  0  0
 11 16  1  0  0  0  0
 11 17  1  0  0  0  0
  1 18  2  0  0  0  0
  1 19  1  0  0  0  0
 19 20  1  0  0  0  0
 20 21  1  0  0  0  0
 21 22  2  0  0  0  0
 21 23  2  0  0  0  0
 21 24  1  0  0  0  0
 24 25  1  0  0  0  0
 25 26  1  0  0  0  0
 25 27  1  0  0  0  0
 25 28  1  0  0  0  0
 24 29  1  0  0  0  0
 24 30  1  0  0  0  0
 20 31  1  0  0  0  0
 20 32  1  0  0  0  0
M  END
> <CAS>
2588-04-7

> <NAME>
PHORATE SULFONE

> <preferred_name>
Phorate sulfone

> <iupac>
O,O-diethyl S-[(ethylsulfonyl)methyl] phosphorodithioate

> <SMILES>
CCS(=O)(=O)CSP(=S)(OCC)OCC

> <Canonical_QSARr>
CCS(=O)(=O)CSP(=S)(OCC)OCC

> <InChI_Code_QSARr>
InChI=1S/C7H17O4PS3/c1-4-10-12(13,11-5-2)14-7-15(8,9)6-3/h4-7H2,1-3H3

> <InChI Key_QSARr>
YVPSNUIHHFTTRL-UHFFFAOYSA-N

> <Salt_Solvent>
?

> <WS Temperature>
20

> <WS Reference>
BOWMAN,BT & SANS,WW (1983A)

> <dsstox_substance_id>
DTXSID6042282

> <LogMolar>
-2.5309

$$$$
2623-33-8
  -INDIGO-01081615412D

 25 25  0  0  0  0  0  0  0  0999 V2000
   -0.0000   -0.0000    0.0000 C   0  0  0  0  0  0  0  0  0  0  0  0
    1.6000    0.0000    0.0000 N   0  0  0  0  0  0  0  0  0  0  0  0
    2.4001   -1.3856    0.0000 C   0  0  0  0  0  0  0  0  0  0  0  0
    1.6000   -2.7713    0.0000 O   0  0  0  0  0  0  0  0  0  0  0  0
    3.9999   -1.3856    0.0000 C   0  0  0  0  0  0  0  0  0  0  0  0
    5.6000   -1.3856    0.0000 H   0  0  0  0  0  0  0  0  0  0  0  0
    4.8000   -2.7713    0.0000 H   0  0  0  0  0  0  0  0  0  0  0  0
    4.8000    0.0000    0.0000 H   0  0  0  0  0  0  0  0  0  0  0  0
    2.4001    1.3856    0.0000 H   0  0  0  0  0  0  0  0  0  0  0  0
   -0.8001    1.3856    0.0000 C   0  0  0  0  0  0  0  0  0  0  0  0
   -0.0000    2.7713    0.0000 H   0  0  0  0  0  0  0  0  0  0  0  0
   -2.3999    1.3856    0.0000 C   0  0  0  0  0  0  0  0  0  0  0  0
   -3.2000    2.7713    0.0000 H   0  0  0  0  0  0  0  0  0  0  0  0
   -3.2000   -0.0000    0.0000 C   0  0  0  0  0  0  0  0  0  0  0  0
   -4.8000   -0.0000    0.0000 O   0  0  0  0  0  0  0  0  0  0  0  0
   -5.6001    1.3856    0.0000 C   0  0  0  0  0  0  0  0  0  0  0  0
   -4.8000    2.7713    0.0000 O   0  0  0  0  0  0  0  0  0  0  0  0
   -7.1999    1.3856    0.0000 C   0  0  0  0  0  0  0  0  0  0  0  0
   -8.8000    1.3856    0.0000 H   0  0  0  0  0  0  0  0  0  0  0  0
   -8.0000    2.7713    0.0000 H   0  0  0  0  0  0  0  0  0  0  0  0
   -8.0000   -0.0000    0.0000 H   0  0  0  0  0  0  0  0  0  0  0  0
   -2.3999   -1.3856    0.0000 C   0  0  0  0  0  0  0  0  0  0  0  0
   -3.2000   -2.7713    0.0000 H   0  0  0  0  0  0  0  0  0  0  0  0
   -0.8001   -1.3856    0.0000 C   0  0  0  0  0  0  0  0  0  0  0  0
   -0.0000   -2.7713    0.0000 H   0  0  0  0  0  0  0  0  0  0  0  0
  1  2  1  0  0  0  0
  2  3  1  0  0  0  0
  3  4  2  0  0  0  0
  3  5  1  0  0  0  0
  5  6  1  0  0  0  0
  5  7  1  0  0  0  0
  5  8  1  0  0  0  0
  2  9  1  0  0  0  0
  1 10  4  0  0  0  0
 10 11  1  0  0  0  0
 10 12  4  0  0  0  0
 12 13  1  0  0  0  0
 12 14  4  0  0  0  0
 14 15  1  0  0  0  0
 15 16  1  0  0  0  0
 16 17  2  0  0  0  0
 16 18  1  0  0  0  0
 18 19  1  0  0  0  0
 18 20  1  0  0  0  0
 18 21  1  0  0  0  0
 14 22  4  0  0  0  0
 22 23  1  0  0  0  0
 22 24  4  0  0  0  0
 24  1  4  0  0  0  0
 24 25  1  0  0  0  0
M  END
> <CAS>
2623-33-8

> <NAME>
P-ACETOXYACETANILIDE

> <preferred_name>
Diacetamate

> <iupac>
4-(acetylamino)phenyl acetate

> <SMILES>
CC(=O)Oc1ccc(cc1)NC(C)=O

> <Canonical_QSARr>
CC(=O)Oc1ccc(cc1)NC(C)=O

> <InChI_Code_QSARr>
InChI=1S/C10H11NO3/c1-7(12)11-9-3-5-10(6-4-9)14-8(2)13/h3-6H,1-2H3,(H,11,12)

> <InChI Key_QSARr>
UJAOSPFULOFZRR-UHFFFAOYSA-N

> <Salt_Solvent>
?

> <WS Temperature>
25

> <WS Reference>
YALKOWSKY,SH & DANNENFELSER,RM (1992)

> <dsstox_substance_id>
DTXSID2046256

> <LogMolar>
-1.9076

$$$$
2636-79-5
  -INDIGO-01081615412D

 20 21  0  0  0  0  0  0  0  0999 V2000
    3.1036    0.5472    0.0000 N   0  0  0  0  0  0  0  0  0  0  0  0
    1.6000    0.0000    0.0000 C   0  0  0  0  0  0  0  0  0  0  0  0
   -0.0000    0.0000    0.0000 C   0  0  0  0  0  0  0  0  0  0  0  0
   -0.8000   -1.3856    0.0000 C   0  0  0  0  0  0  0  0  0  0  0  0
   -2.4000   -1.3856    0.0000 C   0  0  0  0  0  0  0  0  0  0  0  0
   -3.2001    0.0000    0.0000 C   0  0  0  0  0  0  0  0  0  0  0  0
   -2.4000    1.3856    0.0000 C   0  0  0  0  0  0  0  0  0  0  0  0
   -0.8000    1.3856    0.0000 C   0  0  0  0  0  0  0  0  0  0  0  0
   -0.0000    2.7713    0.0000 H   0  0  0  0  0  0  0  0  0  0  0  0
   -3.2001    2.7713    0.0000 H   0  0  0  0  0  0  0  0  0  0  0  0
   -4.8000    0.0000    0.0000 H   0  0  0  0  0  0  0  0  0  0  0  0
   -3.2001   -2.7713    0.0000 H   0  0  0  0  0  0  0  0  0  0  0  0
   -0.0000   -2.7713    0.0000 C   0  0  0  0  0  0  0  0  0  0  0  0
   -0.8000   -4.1569    0.0000 H   0  0  0  0  0  0  0  0  0  0  0  0
    1.6000   -2.7713    0.0000 C   0  0  0  0  0  0  0  0  0  0  0  0
    2.4001   -4.1569    0.0000 H   0  0  0  0  0  0  0  0  0  0  0  0
    2.4001   -1.3856    0.0000 C   0  0  0  0  0  0  0  0  0  0  0  0
    4.0000   -1.3856    0.0000 O   0  0  0  0  0  0  0  0  0  0  0  0
    1.3222    1.5757    0.0000 H   0  0  0  0  0  0  0  0  0  0  0  0
    3.3814    2.1229    0.0000 O   0  0  0  0  0  0  0  0  0  0  0  0
  1  2  1  0  0  0  0
  2  3  1  0  0  0  0
  3  4  4  0  0  0  0
  4  5  4  0  0  0  0
  5  6  4  0  0  0  0
  6  7  4  0  0  0  0
  7  8  4  0  0  0  0
  8  3  4  0  0  0  0
  8  9  1  0  0  0  0
  7 10  1  0  0  0  0
  6 11  1  0  0  0  0
  5 12  1  0  0  0  0
  4 13  1  0  0  0  0
 13 14  1  0  0  0  0
 13 15  2  0  0  0  0
 15 16  1  0  0  0  0
 15 17  1  0  0  0  0
 17  2  1  0  0  0  0
 17 18  2  0  0  0  0
  2 19  1  0  0  0  0
  1 20  2  0  0  0  0
M  END
> <CAS>
2636-79-5

> <NAME>
1,2-Naphthalenedione, 1-oxime

> <preferred_name>


> <iupac>


> <SMILES>
ON=C1C(=O)C=Cc2ccccc21

> <Canonical_QSARr>
O=C1C=Cc2ccccc2C1N=O

> <InChI_Code_QSARr>
InChI=1S/C10H7NO2/c12-9-6-5-7-3-1-2-4-8(7)10(9)11-13/h1-6,10H

> <InChI Key_QSARr>
QLVGTUKTMWWALI-UHFFFAOYSA-N

> <Salt_Solvent>
?

> <WS Temperature>
20

> <WS Reference>
BEILSTEIN

> <dsstox_substance_id>


> <LogMolar>
-2.9374

$$$$
2655-14-3
  -INDIGO-01081615412D

 26 26  0  0  0  0  0  0  0  0999 V2000
    1.3856    0.8000    0.0000 C   0  0  0  0  0  0  0  0  0  0  0  0
    0.0001    0.0001    0.0000 C   0  0  0  0  0  0  0  0  0  0  0  0
   -1.3856    0.8000    0.0000 C   0  0  0  0  0  0  0  0  0  0  0  0
   -1.3856    2.4000    0.0000 H   0  0  0  0  0  0  0  0  0  0  0  0
   -2.7713   -0.0001    0.0000 C   0  0  0  0  0  0  0  0  0  0  0  0
   -4.1569    0.8000    0.0000 O   0  0  0  0  0  0  0  0  0  0  0  0
   -5.5426    0.0001    0.0000 C   0  0  0  0  0  0  0  0  0  0  0  0
   -5.5426   -1.5999    0.0000 O   0  0  0  0  0  0  0  0  0  0  0  0
   -6.9283    0.8000    0.0000 N   0  0  0  0  0  0  0  0  0  0  0  0
   -8.3138    0.0001    0.0000 C   0  0  0  0  0  0  0  0  0  0  0  0
   -9.6995   -0.8000    0.0000 H   0  0  0  0  0  0  0  0  0  0  0  0
   -9.6995    0.8000    0.0000 H   0  0  0  0  0  0  0  0  0  0  0  0
   -8.3138   -1.5999    0.0000 H   0  0  0  0  0  0  0  0  0  0  0  0
   -6.9283    2.4000    0.0000 H   0  0  0  0  0  0  0  0  0  0  0  0
   -2.7713   -1.5999    0.0000 C   0  0  0  0  0  0  0  0  0  0  0  0
   -4.1569   -2.4000    0.0000 H   0  0  0  0  0  0  0  0  0  0  0  0
   -1.3856   -2.4000    0.0000 C   0  0  0  0  0  0  0  0  0  0  0  0
   -1.3856   -4.0000    0.0000 C   0  0  0  0  0  0  0  0  0  0  0  0
   -1.3856   -5.6000    0.0000 H   0  0  0  0  0  0  0  0  0  0  0  0
   -2.7713   -4.8001    0.0000 H   0  0  0  0  0  0  0  0  0  0  0  0
    0.0001   -4.8001    0.0000 H   0  0  0  0  0  0  0  0  0  0  0  0
    0.0001   -1.5999    0.0000 C   0  0  0  0  0  0  0  0  0  0  0  0
    1.3856   -2.4000    0.0000 H   0  0  0  0  0  0  0  0  0  0  0  0
    2.7713    1.6001    0.0000 H   0  0  0  0  0  0  0  0  0  0  0  0
    1.3856    2.4000    0.0000 H   0  0  0  0  0  0  0  0  0  0  0  0
    2.7713    0.0001    0.0000 H   0  0  0  0  0  0  0  0  0  0  0  0
  1  2  1  0  0  0  0
  2  3  4  0  0  0  0
  3  4  1  0  0  0  0
  3  5  4  0  0  0  0
  5  6  1  0  0  0  0
  6  7  1  0  0  0  0
  7  8  2  0  0  0  0
  7  9  1  0  0  0  0
  9 10  1  0  0  0  0
 10 11  1  0  0  0  0
 10 12  1  0  0  0  0
 10 13  1  0  0  0  0
  9 14  1  0  0  0  0
  5 15  4  0  0  0  0
 15 16  1  0  0  0  0
 15 17  4  0  0  0  0
 17 18  1  0  0  0  0
 18 19  1  0  0  0  0
 18 20  1  0  0  0  0
 18 21  1  0  0  0  0
 17 22  4  0  0  0  0
 22  2  4  0  0  0  0
 22 23  1  0  0  0  0
  1 24  1  0  0  0  0
  1 25  1  0  0  0  0
  1 26  1  0  0  0  0
M  END
> <CAS>
2655-14-3

> <NAME>
N-ME-3,5-DIMETHYLPHENYL CARBAMATE

> <preferred_name>
XMC

> <iupac>
3,5-dimethylphenyl methylcarbamate

> <SMILES>
CNC(=O)Oc1cc(C)cc(C)c1

> <Canonical_QSARr>
CNC(=O)Oc1cc(C)cc(C)c1

> <InChI_Code_QSARr>
InChI=1S/C10H13NO2/c1-7-4-8(2)6-9(5-7)13-10(12)11-3/h4-6H,1-3H3,(H,11,12)

> <InChI Key_QSARr>
CVQODEWAPZVVBU-UHFFFAOYSA-N

> <Salt_Solvent>
?

> <WS Temperature>
20

> <WS Reference>
TOMLIN,C (1997)

> <dsstox_substance_id>
DTXSID7058042

> <LogMolar>
-2.5813

$$$$
2737-00-0
  -INDIGO-01081615412D

 32 31  0  0  0  0  0  0  0  0999 V2000
   -4.0000   -1.3856    0.0000 P   0  0  0  0  0  0  0  0  0  0  0  0
   -2.6143   -2.1857    0.0000 O   0  0  0  0  0  0  0  0  0  0  0  0
   -4.8000   -2.7713    0.0000 O   0  0  0  0  0  0  0  0  0  0  0  0
   -6.4001   -2.7713    0.0000 C   0  0  0  0  0  0  0  0  0  0  0  0
   -7.9999   -2.7713    0.0000 C   0  0  0  0  0  0  0  0  0  0  0  0
   -9.6000   -2.7713    0.0000 H   0  0  0  0  0  0  0  0  0  0  0  0
   -8.8000   -4.1570    0.0000 H   0  0  0  0  0  0  0  0  0  0  0  0
   -8.8000   -1.3856    0.0000 H   0  0  0  0  0  0  0  0  0  0  0  0
   -6.4001   -4.3713    0.0000 H   0  0  0  0  0  0  0  0  0  0  0  0
   -6.4001   -1.1713    0.0000 H   0  0  0  0  0  0  0  0  0  0  0  0
   -5.3856   -0.5857    0.0000 O   0  0  0  0  0  0  0  0  0  0  0  0
   -5.3856    1.0143    0.0000 C   0  0  0  0  0  0  0  0  0  0  0  0
   -5.3856    2.6144    0.0000 C   0  0  0  0  0  0  0  0  0  0  0  0
   -5.3856    4.2144    0.0000 H   0  0  0  0  0  0  0  0  0  0  0  0
   -6.7712    3.4144    0.0000 H   0  0  0  0  0  0  0  0  0  0  0  0
   -4.0000    3.4144    0.0000 H   0  0  0  0  0  0  0  0  0  0  0  0
   -6.9857    1.0143    0.0000 H   0  0  0  0  0  0  0  0  0  0  0  0
   -3.7857    1.0143    0.0000 H   0  0  0  0  0  0  0  0  0  0  0  0
   -3.1999   -0.0001    0.0000 O   0  0  0  0  0  0  0  0  0  0  0  0
   -1.6001   -0.0001    0.0000 C   0  0  0  0  0  0  0  0  0  0  0  0
    0.0000   -0.0001    0.0000 C   0  0  0  0  0  0  0  0  0  0  0  0
    1.6001   -0.0001    0.0000 C   0  0  0  0  0  0  0  0  0  0  0  0
    3.1999   -0.0001    0.0000 C   0  0  0  0  0  0  0  0  0  0  0  0
    4.8000   -0.0001    0.0000 H   0  0  0  0  0  0  0  0  0  0  0  0
    4.0000   -1.3856    0.0000 H   0  0  0  0  0  0  0  0  0  0  0  0
    4.0000    1.3856    0.0000 H   0  0  0  0  0  0  0  0  0  0  0  0
    1.6001   -1.6001    0.0000 H   0  0  0  0  0  0  0  0  0  0  0  0
    1.6001    1.6000    0.0000 H   0  0  0  0  0  0  0  0  0  0  0  0
    0.0000    1.6000    0.0000 H   0  0  0  0  0  0  0  0  0  0  0  0
    0.0000   -1.6001    0.0000 H   0  0  0  0  0  0  0  0  0  0  0  0
   -1.6001   -1.6001    0.0000 H   0  0  0  0  0  0  0  0  0  0  0  0
   -1.6001    1.6000    0.0000 H   0  0  0  0  0  0  0  0  0  0  0  0
  1  2  2  0  0  0  0
  1  3  1  0  0  0  0
  3  4  1  0  0  0  0
  4  5  1  0  0  0  0
  5  6  1  0  0  0  0
  5  7  1  0  0  0  0
  5  8  1  0  0  0  0
  4  9  1  0  0  0  0
  4 10  1  0  0  0  0
  1 11  1  0  0  0  0
 11 12  1  0  0  0  0
 12 13  1  0  0  0  0
 13 14  1  0  0  0  0
 13 15  1  0  0  0  0
 13 16  1  0  0  0  0
 12 17  1  0  0  0  0
 12 18  1  0  0  0  0
  1 19  1  0  0  0  0
 19 20  1  0  0  0  0
 20 21  1  0  0  0  0
 21 22  1  0  0  0  0
 22 23  1  0  0  0  0
 23 24  1  0  0  0  0
 23 25  1  0  0  0  0
 23 26  1  0  0  0  0
 22 27  1  0  0  0  0
 22 28  1  0  0  0  0
 21 29  1  0  0  0  0
 21 30  1  0  0  0  0
 20 31  1  0  0  0  0
 20 32  1  0  0  0  0
M  END
> <CAS>
2737-00-0

> <NAME>
Phosphoric acid, butyl diethyl ester

> <preferred_name>
Phosphoric acid, butyl diethyl ester

> <iupac>
Butyl diethyl phosphate

> <SMILES>
CCCCOP(=O)(OCC)OCC

> <Canonical_QSARr>
CCCCOP(=O)(OCC)OCC

> <InChI_Code_QSARr>
InChI=1S/C8H19O4P/c1-4-7-8-12-13(9,10-5-2)11-6-3/h4-8H2,1-3H3

> <InChI Key_QSARr>
DWSYMNWJOYKKCK-UHFFFAOYSA-N

> <Salt_Solvent>
?

> <WS Temperature>
25

> <WS Reference>
BEILSTEIN

> <dsstox_substance_id>
DTXSID60181804

> <LogMolar>
-1.1466

$$$$
2772-46-5
  -INDIGO-01081615412D

 20 20  0  0  0  0  0  0  0  0999 V2000
    0.8000    4.1569    0.0000 Cl  0  0  0  0  0  0  0  0  0  0  0  0
    0.0000    2.7713    0.0000 C   0  0  0  0  0  0  0  0  0  0  0  0
   -1.6000    2.7713    0.0000 C   0  0  0  0  0  0  0  0  0  0  0  0
   -2.4000    4.1569    0.0000 Cl  0  0  0  0  0  0  0  0  0  0  0  0
   -2.4000    1.3856    0.0000 C   0  0  0  0  0  0  0  0  0  0  0  0
   -3.9999    1.3856    0.0000 H   0  0  0  0  0  0  0  0  0  0  0  0
   -1.6000    0.0000    0.0000 C   0  0  0  0  0  0  0  0  0  0  0  0
   -2.4000   -1.3856    0.0000 O   0  0  0  0  0  0  0  0  0  0  0  0
   -3.9999   -1.3856    0.0000 C   0  0  0  0  0  0  0  0  0  0  0  0
   -4.8000   -2.7713    0.0000 H   0  0  0  0  0  0  0  0  0  0  0  0
   -5.6000   -1.3856    0.0000 H   0  0  0  0  0  0  0  0  0  0  0  0
   -3.2000   -2.7713    0.0000 H   0  0  0  0  0  0  0  0  0  0  0  0
    0.0000    0.0000    0.0000 C   0  0  0  0  0  0  0  0  0  0  0  0
    0.8000   -1.3856    0.0000 O   0  0  0  0  0  0  0  0  0  0  0  0
    2.4001   -1.3856    0.0000 C   0  0  0  0  0  0  0  0  0  0  0  0
    3.2000   -2.7713    0.0000 H   0  0  0  0  0  0  0  0  0  0  0  0
    4.0000   -1.3856    0.0000 H   0  0  0  0  0  0  0  0  0  0  0  0
    1.6000   -2.7713    0.0000 H   0  0  0  0  0  0  0  0  0  0  0  0
    0.8000    1.3856    0.0000 C   0  0  0  0  0  0  0  0  0  0  0  0
    2.4001    1.3856    0.0000 H   0  0  0  0  0  0  0  0  0  0  0  0
  1  2  1  0  0  0  0
  2  3  4  0  0  0  0
  3  4  1  0  0  0  0
  3  5  4  0  0  0  0
  5  6  1  0  0  0  0
  5  7  4  0  0  0  0
  7  8  1  0  0  0  0
  8  9  1  0  0  0  0
  9 10  1  0  0  0  0
  9 11  1  0  0  0  0
  9 12  1  0  0  0  0
  7 13  4  0  0  0  0
 13 14  1  0  0  0  0
 14 15  1  0  0  0  0
 15 16  1  0  0  0  0
 15 17  1  0  0  0  0
 15 18  1  0  0  0  0
 13 19  4  0  0  0  0
 19  2  4  0  0  0  0
 19 20  1  0  0  0  0
M  END
> <CAS>
2772-46-5

> <NAME>
4,5-Dichloroveratrole

> <preferred_name>
Benzene, 1,2-dichloro-4,5-dimethoxy-

> <iupac>
1,2-Dichloro-4,5-dimethoxybenzene

> <SMILES>
COc1cc(Cl)c(Cl)cc1OC

> <Canonical_QSARr>
COc1cc(Cl)c(Cl)cc1OC

> <InChI_Code_QSARr>
InChI=1S/C8H8Cl2O2/c1-11-7-3-5(9)6(10)4-8(7)12-2/h3-4H,1-2H3

> <InChI Key_QSARr>
RJYXLZQZBLGBOM-UHFFFAOYSA-N

> <Salt_Solvent>
?

> <WS Temperature>
25

> <WS Reference>
LUN,R ET AL. (1995)

> <dsstox_substance_id>
DTXSID20182074

> <LogMolar>
-3.4588

$$$$
2815-34-1
  -INDIGO-01081615412D

 22 22  0  0  0  0  0  0  0  0999 V2000
   -2.7713    0.0000    0.0000 N   0  0  0  0  0  0  0  0  0  0  0  0
   -2.7713   -1.6000    0.0000 C   0  0  0  0  0  0  0  0  0  0  0  0
   -4.3470   -1.3222    0.0000 C   0  0  0  0  0  0  0  0  0  0  0  0
   -5.9227   -1.0443    0.0000 H   0  0  0  0  0  0  0  0  0  0  0  0
   -5.3755   -2.5478    0.0000 H   0  0  0  0  0  0  0  0  0  0  0  0
   -4.8942    0.1814    0.0000 H   0  0  0  0  0  0  0  0  0  0  0  0
   -3.3185   -3.1035    0.0000 H   0  0  0  0  0  0  0  0  0  0  0  0
   -1.3856   -2.4000    0.0000 C   0  0  0  0  0  0  0  0  0  0  0  0
   -2.4141   -3.6257    0.0000 H   0  0  0  0  0  0  0  0  0  0  0  0
   -0.3572   -3.6257    0.0000 H   0  0  0  0  0  0  0  0  0  0  0  0
    0.0000   -1.6000    0.0000 N   0  0  0  0  0  0  0  0  0  0  0  0
    1.3856   -2.4000    0.0000 H   0  0  0  0  0  0  0  0  0  0  0  0
    0.0000    0.0000    0.0000 C   0  0  0  0  0  0  0  0  0  0  0  0
    1.5757   -0.2778    0.0000 C   0  0  0  0  0  0  0  0  0  0  0  0
    3.1514   -0.5557    0.0000 H   0  0  0  0  0  0  0  0  0  0  0  0
    2.6042    0.9478    0.0000 H   0  0  0  0  0  0  0  0  0  0  0  0
    2.1229   -1.7814    0.0000 H   0  0  0  0  0  0  0  0  0  0  0  0
    0.5472    1.5035    0.0000 H   0  0  0  0  0  0  0  0  0  0  0  0
   -1.3856    0.8000    0.0000 C   0  0  0  0  0  0  0  0  0  0  0  0
   -0.3572    2.0257    0.0000 H   0  0  0  0  0  0  0  0  0  0  0  0
   -2.4141    2.0257    0.0000 H   0  0  0  0  0  0  0  0  0  0  0  0
   -4.1569    0.8000    0.0000 H   0  0  0  0  0  0  0  0  0  0  0  0
  1  2  1  0  0  0  0
  2  3  1  0  0  0  0
  3  4  1  0  0  0  0
  3  5  1  0  0  0  0
  3  6  1  0  0  0  0
  2  7  1  0  0  0  0
  2  8  1  0  0  0  0
  8  9  1  0  0  0  0
  8 10  1  0  0  0  0
  8 11  1  0  0  0  0
 11 12  1  0  0  0  0
 11 13  1  0  0  0  0
 13 14  1  0  0  0  0
 14 15  1  0  0  0  0
 14 16  1  0  0  0  0
 14 17  1  0  0  0  0
 13 18  1  0  0  0  0
 13 19  1  0  0  0  0
 19  1  1  0  0  0  0
 19 20  1  0  0  0  0
 19 21  1  0  0  0  0
  1 22  1  0  0  0  0
M  END
> <CAS>
2815-34-1

> <NAME>
trans-2,5-Dimethylpiperazine

> <preferred_name>


> <iupac>


> <SMILES>
C[C@@H]1CN[C@@H](C)CN1

> <Canonical_QSARr>
CC1CNC(C)CN1

> <InChI_Code_QSARr>
InChI=1S/C6H14N2/c1-5-3-8-6(2)4-7-5/h5-8H,3-4H2,1-2H3

> <InChI Key_QSARr>
NSMWYRLQHIXVAP-UHFFFAOYSA-N

> <Salt_Solvent>
?

> <WS Temperature>
20

> <WS Reference>
YALKOWSKY,SH & DANNENFELSER,RM (1992)

> <dsstox_substance_id>


> <LogMolar>
0.4864

$$$$
2845-89-8
  -INDIGO-01081615412D

 16 16  0  0  0  0  0  0  0  0999 V2000
   -0.0000   -0.0000    0.0000 C   0  0  0  0  0  0  0  0  0  0  0  0
    1.6000    0.0000    0.0000 O   0  0  0  0  0  0  0  0  0  0  0  0
    2.4001   -1.3856    0.0000 C   0  0  0  0  0  0  0  0  0  0  0  0
    4.0000   -1.3856    0.0000 H   0  0  0  0  0  0  0  0  0  0  0  0
    3.2000   -2.7713    0.0000 H   0  0  0  0  0  0  0  0  0  0  0  0
    3.2000    0.0000    0.0000 H   0  0  0  0  0  0  0  0  0  0  0  0
   -0.8000    1.3856    0.0000 C   0  0  0  0  0  0  0  0  0  0  0  0
   -0.0000    2.7713    0.0000 H   0  0  0  0  0  0  0  0  0  0  0  0
   -2.4000    1.3856    0.0000 C   0  0  0  0  0  0  0  0  0  0  0  0
   -3.2001    2.7713    0.0000 H   0  0  0  0  0  0  0  0  0  0  0  0
   -3.2001   -0.0000    0.0000 C   0  0  0  0  0  0  0  0  0  0  0  0
   -4.8000   -0.0000    0.0000 H   0  0  0  0  0  0  0  0  0  0  0  0
   -2.4000   -1.3856    0.0000 C   0  0  0  0  0  0  0  0  0  0  0  0
   -3.2001   -2.7713    0.0000 Cl  0  0  0  0  0  0  0  0  0  0  0  0
   -0.8000   -1.3856    0.0000 C   0  0  0  0  0  0  0  0  0  0  0  0
   -0.0000   -2.7713    0.0000 H   0  0  0  0  0  0  0  0  0  0  0  0
  1  2  1  0  0  0  0
  2  3  1  0  0  0  0
  3  4  1  0  0  0  0
  3  5  1  0  0  0  0
  3  6  1  0  0  0  0
  1  7  4  0  0  0  0
  7  8  1  0  0  0  0
  7  9  4  0  0  0  0
  9 10  1  0  0  0  0
  9 11  4  0  0  0  0
 11 12  1  0  0  0  0
 11 13  4  0  0  0  0
 13 14  1  0  0  0  0
 13 15  4  0  0  0  0
 15  1  4  0  0  0  0
 15 16  1  0  0  0  0
M  END
> <CAS>
2845-89-8

> <NAME>
M-CHLOROANISOLE

> <preferred_name>
Benzene, 1-chloro-3-methoxy-

> <iupac>
1-CHLORO-3-METHOXYBENZENE

> <SMILES>
COc1cccc(Cl)c1

> <Canonical_QSARr>
COc1cccc(Cl)c1

> <InChI_Code_QSARr>
InChI=1S/C7H7ClO/c1-9-7-4-2-3-6(8)5-7/h2-5H,1H3

> <InChI Key_QSARr>
YUKILTJWFRTXGB-UHFFFAOYSA-N

> <Salt_Solvent>
?

> <WS Temperature>
25

> <WS Reference>
LUN,R ET AL. (1995)

> <dsstox_substance_id>
DTXSID7062667

> <LogMolar>
-2.783

$$$$
2941-55-1
  -INDIGO-01081615412D

 25 24  0  0  0  0  0  0  0  0999 V2000
   -1.3856   -0.7999    0.0000 C   0  0  0  0  0  0  0  0  0  0  0  0
   -0.0001    0.0000    0.0000 N   0  0  0  0  0  0  0  0  0  0  0  0
   -0.0001    1.6000    0.0000 C   0  0  0  0  0  0  0  0  0  0  0  0
   -0.0001    3.2000    0.0000 C   0  0  0  0  0  0  0  0  0  0  0  0
   -0.0001    4.8000    0.0000 H   0  0  0  0  0  0  0  0  0  0  0  0
   -1.3856    3.9999    0.0000 H   0  0  0  0  0  0  0  0  0  0  0  0
    1.3856    3.9999    0.0000 H   0  0  0  0  0  0  0  0  0  0  0  0
   -1.6000    1.6000    0.0000 H   0  0  0  0  0  0  0  0  0  0  0  0
    1.6001    1.6000    0.0000 H   0  0  0  0  0  0  0  0  0  0  0  0
    1.3856   -0.7999    0.0000 C   0  0  0  0  0  0  0  0  0  0  0  0
    2.7713   -1.6000    0.0000 C   0  0  0  0  0  0  0  0  0  0  0  0
    4.1569   -2.3999    0.0000 H   0  0  0  0  0  0  0  0  0  0  0  0
    2.7713   -3.2000    0.0000 H   0  0  0  0  0  0  0  0  0  0  0  0
    4.1569   -0.7999    0.0000 H   0  0  0  0  0  0  0  0  0  0  0  0
    0.5857   -2.1856    0.0000 H   0  0  0  0  0  0  0  0  0  0  0  0
    2.1857    0.5856    0.0000 H   0  0  0  0  0  0  0  0  0  0  0  0
   -2.7712    0.0000    0.0000 S   0  0  0  0  0  0  0  0  0  0  0  0
   -4.1569   -0.7999    0.0000 C   0  0  0  0  0  0  0  0  0  0  0  0
   -5.5425   -1.6000    0.0000 C   0  0  0  0  0  0  0  0  0  0  0  0
   -6.9282   -2.3999    0.0000 H   0  0  0  0  0  0  0  0  0  0  0  0
   -6.9282   -0.7999    0.0000 H   0  0  0  0  0  0  0  0  0  0  0  0
   -5.5425   -3.2000    0.0000 H   0  0  0  0  0  0  0  0  0  0  0  0
   -4.9570    0.5856    0.0000 H   0  0  0  0  0  0  0  0  0  0  0  0
   -3.3570   -2.1856    0.0000 H   0  0  0  0  0  0  0  0  0  0  0  0
   -1.3857   -2.3999    0.0000 O   0  0  0  0  0  0  0  0  0  0  0  0
  1  2  1  0  0  0  0
  2  3  1  0  0  0  0
  3  4  1  0  0  0  0
  4  5  1  0  0  0  0
  4  6  1  0  0  0  0
  4  7  1  0  0  0  0
  3  8  1  0  0  0  0
  3  9  1  0  0  0  0
  2 10  1  0  0  0  0
 10 11  1  0  0  0  0
 11 12  1  0  0  0  0
 11 13  1  0  0  0  0
 11 14  1  0  0  0  0
 10 15  1  0  0  0  0
 10 16  1  0  0  0  0
  1 17  1  0  0  0  0
 17 18  1  0  0  0  0
 18 19  1  0  0  0  0
 19 20  1  0  0  0  0
 19 21  1  0  0  0  0
 19 22  1  0  0  0  0
 18 23  1  0  0  0  0
 18 24  1  0  0  0  0
  1 25  2  0  0  0  0
M  END
> <CAS>
2941-55-1

> <NAME>
Carbamic acid, diethylthio-, S-ethyl ester

> <preferred_name>
Ethiolate

> <iupac>
S-ethyl diethylcarbamothioate

> <SMILES>
CCSC(=O)N(CC)CC

> <Canonical_QSARr>
CCSC(=O)N(CC)CC

> <InChI_Code_QSARr>
InChI=1S/C7H15NOS/c1-4-8(5-2)7(9)10-6-3/h4-6H2,1-3H3

> <InChI Key_QSARr>
WARIWGPBHKPYON-UHFFFAOYSA-N

> <Salt_Solvent>
?

> <WS Temperature>
25

> <WS Reference>
SHIU,WY ET AL. (1990)

> <dsstox_substance_id>
DTXSID6041925

> <LogMolar>
-1.6917

$$$$
2974-90-5
  -INDIGO-01081615412D

 22 23  0  0  0  0  0  0  0  0999 V2000
    0.0001    0.0000    0.0000 C   0  0  0  0  0  0  0  0  0  0  0  0
    0.8001   -1.3856    0.0000 C   0  0  0  0  0  0  0  0  0  0  0  0
    0.0001   -2.7713    0.0000 H   0  0  0  0  0  0  0  0  0  0  0  0
    2.4000   -1.3856    0.0000 C   0  0  0  0  0  0  0  0  0  0  0  0
    3.2000   -2.7713    0.0000 H   0  0  0  0  0  0  0  0  0  0  0  0
    3.2000    0.0000    0.0000 C   0  0  0  0  0  0  0  0  0  0  0  0
    4.8000    0.0000    0.0000 H   0  0  0  0  0  0  0  0  0  0  0  0
    2.4000    1.3856    0.0000 C   0  0  0  0  0  0  0  0  0  0  0  0
    3.2000    2.7713    0.0000 Cl  0  0  0  0  0  0  0  0  0  0  0  0
    0.8001    1.3856    0.0000 C   0  0  0  0  0  0  0  0  0  0  0  0
    0.0001    2.7713    0.0000 H   0  0  0  0  0  0  0  0  0  0  0  0
   -1.6001   -0.0000    0.0000 C   0  0  0  0  0  0  0  0  0  0  0  0
   -2.4001    1.3856    0.0000 C   0  0  0  0  0  0  0  0  0  0  0  0
   -1.6001    2.7713    0.0000 H   0  0  0  0  0  0  0  0  0  0  0  0
   -4.0000    1.3856    0.0000 C   0  0  0  0  0  0  0  0  0  0  0  0
   -4.8000    2.7713    0.0000 H   0  0  0  0  0  0  0  0  0  0  0  0
   -4.8000   -0.0000    0.0000 C   0  0  0  0  0  0  0  0  0  0  0  0
   -6.4000   -0.0000    0.0000 Cl  0  0  0  0  0  0  0  0  0  0  0  0
   -4.0000   -1.3856    0.0000 C   0  0  0  0  0  0  0  0  0  0  0  0
   -4.8000   -2.7713    0.0000 H   0  0  0  0  0  0  0  0  0  0  0  0
   -2.4001   -1.3856    0.0000 C   0  0  0  0  0  0  0  0  0  0  0  0
   -1.6001   -2.7713    0.0000 H   0  0  0  0  0  0  0  0  0  0  0  0
  1  2  4  0  0  0  0
  2  3  1  0  0  0  0
  2  4  4  0  0  0  0
  4  5  1  0  0  0  0
  4  6  4  0  0  0  0
  6  7  1  0  0  0  0
  6  8  4  0  0  0  0
  8  9  1  0  0  0  0
  8 10  4  0  0  0  0
 10  1  4  0  0  0  0
 10 11  1  0  0  0  0
  1 12  1  0  0  0  0
 12 13  4  0  0  0  0
 13 14  1  0  0  0  0
 13 15  4  0  0  0  0
 15 16  1  0  0  0  0
 15 17  4  0  0  0  0
 17 18  1  0  0  0  0
 17 19  4  0  0  0  0
 19 20  1  0  0  0  0
 19 21  4  0  0  0  0
 21 12  4  0  0  0  0
 21 22  1  0  0  0  0
M  END
> <CAS>
2974-90-5

> <NAME>
BIPHENYL, 3,4'-DICHLORO-

> <preferred_name>


> <iupac>


> <SMILES>
Clc1ccc(cc1)-c1cc(Cl)ccc1

> <Canonical_QSARr>
Clc1ccc(cc1)-c1cc(Cl)ccc1

> <InChI_Code_QSARr>
InChI=1S/C12H8Cl2/c13-11-6-4-9(5-7-11)10-2-1-3-12(14)8-10/h1-8H

> <InChI Key_QSARr>
CJDNEKOMKXLSBN-UHFFFAOYSA-N

> <Salt_Solvent>
?

> <WS Temperature>
25

> <WS Reference>
YALKOWSKY,SH & DANNENFELSER,RM (1992)

> <dsstox_substance_id>


> <LogMolar>
-6.4001

$$$$
2987-46-4
  -INDIGO-01081615412D

 16 16  0  0  0  0  0  0  0  0999 V2000
    4.8001    0.0000    0.0000 S   0  0  0  0  0  0  0  0  0  0  0  0
    5.6000   -1.3856    0.0000 C   0  0  0  0  0  0  0  0  0  0  0  0
    6.4000   -2.7713    0.0000 N   0  0  0  0  0  0  0  0  0  0  0  0
    3.2000   -0.0000    0.0000 C   0  0  0  0  0  0  0  0  0  0  0  0
    2.4000    1.3856    0.0000 C   0  0  0  0  0  0  0  0  0  0  0  0
    3.2000    2.7713    0.0000 H   0  0  0  0  0  0  0  0  0  0  0  0
    0.8000    1.3856    0.0000 C   0  0  0  0  0  0  0  0  0  0  0  0
   -0.0000    2.7713    0.0000 H   0  0  0  0  0  0  0  0  0  0  0  0
   -0.0000   -0.0000    0.0000 C   0  0  0  0  0  0  0  0  0  0  0  0
   -1.6000   -0.0000    0.0000 N   0  0  0  0  0  0  0  0  0  0  0  0
   -2.4000    1.3856    0.0000 H   0  0  0  0  0  0  0  0  0  0  0  0
   -2.4000   -1.3856    0.0000 H   0  0  0  0  0  0  0  0  0  0  0  0
    0.8000   -1.3856    0.0000 C   0  0  0  0  0  0  0  0  0  0  0  0
   -0.0000   -2.7713    0.0000 H   0  0  0  0  0  0  0  0  0  0  0  0
    2.4000   -1.3856    0.0000 C   0  0  0  0  0  0  0  0  0  0  0  0
    3.2000   -2.7713    0.0000 H   0  0  0  0  0  0  0  0  0  0  0  0
  1  2  1  0  0  0  0
  2  3  3  0  0  0  0
  1  4  1  0  0  0  0
  4  5  4  0  0  0  0
  5  6  1  0  0  0  0
  5  7  4  0  0  0  0
  7  8  1  0  0  0  0
  7  9  4  0  0  0  0
  9 10  1  0  0  0  0
 10 11  1  0  0  0  0
 10 12  1  0  0  0  0
  9 13  4  0  0  0  0
 13 14  1  0  0  0  0
 13 15  4  0  0  0  0
 15  4  4  0  0  0  0
 15 16  1  0  0  0  0
M  END
> <CAS>
2987-46-4

> <NAME>
Thiocyanic acid, 4-aminophenyl ester

> <preferred_name>
Thiocyanic acid, p-aminophenyl ester

> <iupac>
4-thiocyanatoaniline

> <SMILES>
Nc1ccc(cc1)SC#N

> <Canonical_QSARr>
Nc1ccc(cc1)SC#N

> <InChI_Code_QSARr>
InChI=1S/C7H6N2S/c8-5-10-7-3-1-6(9)2-4-7/h1-4H,9H2

> <InChI Key_QSARr>
NJYFRQQXXXRJHK-UHFFFAOYSA-N

> <Salt_Solvent>
?

> <WS Temperature>
25

> <WS Reference>
BEILSTEIN

> <dsstox_substance_id>
DTXSID20183985

> <LogMolar>
-2.6015

$$$$
3011-34-5
  -INDIGO-01081615412D

 17 17  0  0  0  0  0  0  0  0999 V2000
    1.3856    2.4000    0.0000 O   0  0  0  0  0  0  0  0  0  0  0  0
    0.0000    1.6000    0.0000 C   0  0  0  0  0  0  0  0  0  0  0  0
   -1.3857    2.4000    0.0000 C   0  0  0  0  0  0  0  0  0  0  0  0
   -1.3857    4.0000    0.0000 H   0  0  0  0  0  0  0  0  0  0  0  0
   -2.7713    1.6000    0.0000 C   0  0  0  0  0  0  0  0  0  0  0  0
   -4.1570    2.4000    0.0000 H   0  0  0  0  0  0  0  0  0  0  0  0
   -2.7713    0.0000    0.0000 C   0  0  0  0  0  0  0  0  0  0  0  0
   -4.1569   -0.8000    0.0000 C   0  0  0  0  0  0  0  0  0  0  0  0
   -5.5426    0.0000    0.0000 O   0  0  0  0  0  0  0  0  0  0  0  0
   -4.1569   -2.4000    0.0000 H   0  0  0  0  0  0  0  0  0  0  0  0
   -1.3857   -0.8000    0.0000 C   0  0  0  0  0  0  0  0  0  0  0  0
   -1.3857   -2.4000    0.0000 H   0  0  0  0  0  0  0  0  0  0  0  0
    0.0000    0.0000    0.0000 C   0  0  0  0  0  0  0  0  0  0  0  0
    1.3857   -0.8000    0.0000 N   0  0  0  0  0  0  0  0  0  0  0  0
    1.3857   -2.4000    0.0000 O   0  0  0  0  0  0  0  0  0  0  0  0
    2.7713    0.0000    0.0000 O   0  0  0  0  0  0  0  0  0  0  0  0
    1.3856    4.0000    0.0000 H   0  0  0  0  0  0  0  0  0  0  0  0
  1  2  1  0  0  0  0
  2  3  4  0  0  0  0
  3  4  1  0  0  0  0
  3  5  4  0  0  0  0
  5  6  1  0  0  0  0
  5  7  4  0  0  0  0
  7  8  1  0  0  0  0
  8  9  2  0  0  0  0
  8 10  1  0  0  0  0
  7 11  4  0  0  0  0
 11 12  1  0  0  0  0
 11 13  4  0  0  0  0
 13  2  4  0  0  0  0
 13 14  1  0  0  0  0
 14 15  2  0  0  0  0
 14 16  1  0  0  0  0
  1 17  1  0  0  0  0
M  CHG  2  14   1  16  -1
M  END
> <CAS>
3011-34-5

> <NAME>
4-FORMYL-2-NITROPHENOL

> <preferred_name>
4-Hydroxy-3-nitrobenzaldehyde

> <iupac>
4-Hydroxy-3-nitrobenzaldehyde

> <SMILES>
[O-][N+](=O)c1cc(ccc1O)C=O

> <Canonical_QSARr>
[O-][N+](=O)c1cc(ccc1O)C=O

> <InChI_Code_QSARr>
InChI=1S/C7H5NO4/c9-4-5-1-2-7(10)6(3-5)8(11)12/h1-4,10H

> <InChI Key_QSARr>
YTHJCZRFJGXPTL-UHFFFAOYSA-N

> <Salt_Solvent>
?

> <WS Temperature>
20

> <WS Reference>
SCHWARZENBACH,RP ET AL. (1988)

> <dsstox_substance_id>
DTXSID80184195

> <LogMolar>
-2.9501

$$$$
3035-45-8
  -INDIGO-01081615412D

 29 29  0  0  0  0  0  0  0  0999 V2000
   -5.6001    1.3856    0.0000 O   0  0  0  0  0  0  0  0  0  0  0  0
   -7.2000    1.3856    0.0000 C   0  0  0  0  0  0  0  0  0  0  0  0
   -8.0000    2.7713    0.0000 H   0  0  0  0  0  0  0  0  0  0  0  0
   -8.8000    1.3856    0.0000 H   0  0  0  0  0  0  0  0  0  0  0  0
   -6.3999    2.7713    0.0000 H   0  0  0  0  0  0  0  0  0  0  0  0
   -4.8001    0.0000    0.0000 C   0  0  0  0  0  0  0  0  0  0  0  0
   -5.6001   -1.3857    0.0000 N   0  0  0  1  0  0  0  0  0  0  0  0
   -4.8001   -2.7713    0.0000 C   0  0  0  0  0  0  0  0  0  0  0  0
   -5.6001   -4.1569    0.0000 N   0  0  0  0  0  0  0  0  0  0  0  0
   -7.2000   -4.1569    0.0000 C   0  0  0  0  0  0  0  0  0  0  0  0
   -8.8000   -4.1569    0.0000 H   0  0  0  0  0  0  0  0  0  0  0  0
   -8.0000   -5.5426    0.0000 H   0  0  0  0  0  0  0  0  0  0  0  0
   -8.0000   -2.7713    0.0000 H   0  0  0  0  0  0  0  0  0  0  0  0
   -4.8001   -5.5426    0.0000 H   0  0  0  0  0  0  0  0  0  0  0  0
   -3.2000   -2.7713    0.0000 N   0  0  0  1  0  0  0  0  0  0  0  0
   -2.4000   -1.3856    0.0000 C   0  0  0  0  0  0  0  0  0  0  0  0
   -0.8000   -1.3856    0.0000 N   0  0  0  0  0  0  0  0  0  0  0  0
    0.0001    0.0000    0.0000 C   0  0  0  0  0  0  0  0  0  0  0  0
    0.7999    1.3857    0.0000 C   0  0  0  0  0  0  0  0  0  0  0  0
    1.5999    2.7713    0.0000 H   0  0  0  0  0  0  0  0  0  0  0  0
    2.4000    1.3857    0.0000 H   0  0  0  0  0  0  0  0  0  0  0  0
    0.0001    2.7713    0.0000 H   0  0  0  0  0  0  0  0  0  0  0  0
    1.3856   -0.8000    0.0000 C   0  0  0  0  0  0  0  0  0  0  0  0
    2.7713   -1.6000    0.0000 H   0  0  0  0  0  0  0  0  0  0  0  0
    2.7713    0.0000    0.0000 H   0  0  0  0  0  0  0  0  0  0  0  0
    1.3856   -2.4000    0.0000 H   0  0  0  0  0  0  0  0  0  0  0  0
   -1.3856    0.8000    0.0000 H   0  0  0  0  0  0  0  0  0  0  0  0
    0.0001   -2.7713    0.0000 H   0  0  0  0  0  0  0  0  0  0  0  0
   -3.2000    0.0000    0.0000 N   0  0  0  1  0  0  0  0  0  0  0  0
  1  2  1  0  0  0  0
  2  3  1  0  0  0  0
  2  4  1  0  0  0  0
  2  5  1  0  0  0  0
  1  6  1  0  0  0  0
  6  7  4  0  0  0  0
  7  8  4  0  0  0  0
  8  9  1  0  0  0  0
  9 10  1  0  0  0  0
 10 11  1  0  0  0  0
 10 12  1  0  0  0  0
 10 13  1  0  0  0  0
  9 14  1  0  0  0  0
  8 15  4  0  0  0  0
 15 16  4  0  0  0  0
 16 17  1  0  0  0  0
 17 18  1  0  0  0  0
 18 19  1  0  0  0  0
 19 20  1  0  0  0  0
 19 21  1  0  0  0  0
 19 22  1  0  0  0  0
 18 23  1  0  0  0  0
 23 24  1  0  0  0  0
 23 25  1  0  0  0  0
 23 26  1  0  0  0  0
 18 27  1  0  0  0  0
 17 28  1  0  0  0  0
 16 29  4  0  0  0  0
 29  6  4  0  0  0  0
M  END
> <CAS>
3035-45-8

> <NAME>
G-32292 (ARATONE)

> <preferred_name>
s-Triazine, 2-isopropylamino-4-methoxy-6-methylamino-

> <iupac>
6-methoxy-N'-methyl-N-propan-2-yl-1,3,5-triazine-2,4-diamine

> <SMILES>
CNc1[n]c([n]c(NC(C)C)[n]1)OC

> <Canonical_QSARr>
CNc1[n]c([n]c(NC(C)C)[n]1)OC

> <InChI_Code_QSARr>
InChI=1S/C8H15N5O/c1-5(2)10-7-11-6(9-3)12-8(13-7)14-4/h5H,1-4H3,(H2,9,10,11,12,13)

> <InChI Key_QSARr>
UDLNDEWOMCYEIA-UHFFFAOYSA-N

> <Salt_Solvent>
?

> <WS Temperature>
21

> <WS Reference>
GUNTHER,FA ET AL. (1968)

> <dsstox_substance_id>
DTXSID80184433

> <LogMolar>
-1.7509

$$$$
3088-42-4
  -INDIGO-01081615412D

 17 16  0  0  0  0  0  0  0  0999 V2000
    5.5425    0.0000    0.0000 O   0  0  0  0  0  0  0  0  0  0  0  0
    4.1569    0.8000    0.0000 C   0  0  0  0  0  0  0  0  0  0  0  0
    2.7712    0.0000    0.0000 C   0  0  0  0  0  0  0  0  0  0  0  0
    1.3857   -0.8000    0.0000 N   0  0  0  0  0  0  0  0  0  0  0  0
    0.0001    0.0000    0.0000 C   0  0  0  0  0  0  0  0  0  0  0  0
   -1.3856    0.8000    0.0000 C   0  0  0  0  0  0  0  0  0  0  0  0
   -2.7713    1.6000    0.0000 C   0  0  0  0  0  0  0  0  0  0  0  0
   -4.1569    2.4000    0.0000 N   0  0  0  0  0  0  0  0  0  0  0  0
   -2.1857   -0.5856    0.0000 H   0  0  0  0  0  0  0  0  0  0  0  0
   -0.5857    2.1856    0.0000 H   0  0  0  0  0  0  0  0  0  0  0  0
    0.8000    1.3857    0.0000 H   0  0  0  0  0  0  0  0  0  0  0  0
   -0.8000   -1.3857    0.0000 H   0  0  0  0  0  0  0  0  0  0  0  0
    1.3857   -2.4000    0.0000 H   0  0  0  0  0  0  0  0  0  0  0  0
    3.5713   -1.3857    0.0000 H   0  0  0  0  0  0  0  0  0  0  0  0
    1.9713    1.3857    0.0000 H   0  0  0  0  0  0  0  0  0  0  0  0
    4.1569    2.4000    0.0000 O   0  0  0  0  0  0  0  0  0  0  0  0
    6.9282    0.8000    0.0000 H   0  0  0  0  0  0  0  0  0  0  0  0
  1  2  1  0  0  0  0
  2  3  1  0  0  0  0
  3  4  1  0  0  0  0
  4  5  1  0  0  0  0
  5  6  1  0  0  0  0
  6  7  1  0  0  0  0
  7  8  3  0  0  0  0
  6  9  1  0  0  0  0
  6 10  1  0  0  0  0
  5 11  1  0  0  0  0
  5 12  1  0  0  0  0
  4 13  1  0  0  0  0
  3 14  1  0  0  0  0
  3 15  1  0  0  0  0
  2 16  2  0  0  0  0
  1 17  1  0  0  0  0
M  END
> <CAS>
3088-42-4

> <NAME>
Glycine, N-(2-cyanoethyl)-

> <preferred_name>
N-(2-Cyanoethyl)glycine

> <iupac>
2-(2-cyanoethylamino)acetic acid

> <SMILES>
N#CCCNCC(O)=O

> <Canonical_QSARr>
N#CCCNCC(O)=O

> <InChI_Code_QSARr>
InChI=1S/C5H8N2O2/c6-2-1-3-7-4-5(8)9/h7H,1,3-4H2,(H,8,9)

> <InChI Key_QSARr>
KZUBZCHAWPDYQX-UHFFFAOYSA-N

> <Salt_Solvent>
?

> <WS Temperature>
26

> <WS Reference>
BEILSTEIN

> <dsstox_substance_id>
DTXSID70184886

> <LogMolar>
0.3237

$$$$
3135-74-8
  -INDIGO-01081615412D

  8  7  0  0  0  0  0  0  0  0999 V2000
    1.3856    2.4000    0.0000 Cl  0  0  0  0  0  0  0  0  0  0  0  0
    1.3856    0.8000    0.0000 N   0  0  0  0  0  0  0  0  0  0  0  0
   -0.0000    0.0000    0.0000 C   0  0  0  0  0  0  0  0  0  0  0  0
   -1.3856    0.8000    0.0000 N   0  0  0  0  0  0  0  0  0  0  0  0
   -2.7713    0.0000    0.0000 H   0  0  0  0  0  0  0  0  0  0  0  0
   -1.3856    2.4000    0.0000 H   0  0  0  0  0  0  0  0  0  0  0  0
    0.0000   -1.6000    0.0000 O   0  0  0  0  0  0  0  0  0  0  0  0
    2.7713    0.0000    0.0000 H   0  0  0  0  0  0  0  0  0  0  0  0
  1  2  1  0  0  0  0
  2  3  1  0  0  0  0
  3  4  1  0  0  0  0
  4  5  1  0  0  0  0
  4  6  1  0  0  0  0
  3  7  2  0  0  0  0
  2  8  1  0  0  0  0
M  END
> <CAS>
3135-74-8

> <NAME>
Urea, chloro-

> <preferred_name>
Chlorourea

> <iupac>
CH3ClN2O

> <SMILES>
NC(=O)NCl

> <Canonical_QSARr>
NC(=O)NCl

> <InChI_Code_QSARr>
InChI=1S/CH3ClN2O/c2-4-1(3)5/h(H3,3,4,5)

> <InChI Key_QSARr>
RMXVHZFHSKRNJN-UHFFFAOYSA-N

> <Salt_Solvent>
?

> <WS Temperature>


> <WS Reference>
BEILSTEIN

> <dsstox_substance_id>
DTXSID50473947

> <LogMolar>
0.3256

$$$$
3153-44-4
  -INDIGO-01081615412D

 27 27  0  0  0  0  0  0  0  0999 V2000
    6.9283    2.4000    0.0000 O   0  0  0  0  0  0  0  0  0  0  0  0
    8.3138    1.6000    0.0000 C   0  0  0  0  0  0  0  0  0  0  0  0
    9.6995    2.4000    0.0000 H   0  0  0  0  0  0  0  0  0  0  0  0
    9.6995    0.8000    0.0000 H   0  0  0  0  0  0  0  0  0  0  0  0
    8.3138    3.2000    0.0000 H   0  0  0  0  0  0  0  0  0  0  0  0
    5.5426    1.6000    0.0000 C   0  0  0  0  0  0  0  0  0  0  0  0
    4.1569    2.4000    0.0000 C   0  0  0  0  0  0  0  0  0  0  0  0
    4.1569    4.0000    0.0000 H   0  0  0  0  0  0  0  0  0  0  0  0
    2.7712    1.6000    0.0000 C   0  0  0  0  0  0  0  0  0  0  0  0
    1.3857    2.4000    0.0000 H   0  0  0  0  0  0  0  0  0  0  0  0
    2.7712    0.0000    0.0000 C   0  0  0  0  0  0  0  0  0  0  0  0
    1.3857   -0.8000    0.0000 C   0  0  0  0  0  0  0  0  0  0  0  0
    0.0000    0.0000    0.0000 C   0  0  0  0  0  0  0  0  0  0  0  0
   -1.3857    0.8000    0.0000 C   0  0  0  0  0  0  0  0  0  0  0  0
   -2.7714    1.6000    0.0000 C   0  0  0  0  0  0  0  0  0  0  0  0
   -2.7714    3.2000    0.0000 O   0  0  0  0  0  0  0  0  0  0  0  0
   -4.1569    0.8000    0.0000 O   0  0  0  0  0  0  0  0  0  0  0  0
   -5.5426    1.6000    0.0000 H   0  0  0  0  0  0  0  0  0  0  0  0
   -2.1858   -0.5856    0.0000 H   0  0  0  0  0  0  0  0  0  0  0  0
   -0.5856    2.1856    0.0000 H   0  0  0  0  0  0  0  0  0  0  0  0
   -0.8000   -1.3856    0.0000 H   0  0  0  0  0  0  0  0  0  0  0  0
    0.8001    1.3856    0.0000 H   0  0  0  0  0  0  0  0  0  0  0  0
    1.3857   -2.4000    0.0000 O   0  0  0  0  0  0  0  0  0  0  0  0
    4.1569   -0.8000    0.0000 C   0  0  0  0  0  0  0  0  0  0  0  0
    4.1569   -2.4000    0.0000 H   0  0  0  0  0  0  0  0  0  0  0  0
    5.5426    0.0000    0.0000 C   0  0  0  0  0  0  0  0  0  0  0  0
    6.9283   -0.8000    0.0000 H   0  0  0  0  0  0  0  0  0  0  0  0
  1  2  1  0  0  0  0
  2  3  1  0  0  0  0
  2  4  1  0  0  0  0
  2  5  1  0  0  0  0
  1  6  1  0  0  0  0
  6  7  4  0  0  0  0
  7  8  1  0  0  0  0
  7  9  4  0  0  0  0
  9 10  1  0  0  0  0
  9 11  4  0  0  0  0
 11 12  1  0  0  0  0
 12 13  1  0  0  0  0
 13 14  1  0  0  0  0
 14 15  1  0  0  0  0
 15 16  2  0  0  0  0
 15 17  1  0  0  0  0
 17 18  1  0  0  0  0
 14 19  1  0  0  0  0
 14 20  1  0  0  0  0
 13 21  1  0  0  0  0
 13 22  1  0  0  0  0
 12 23  2  0  0  0  0
 11 24  4  0  0  0  0
 24 25  1  0  0  0  0
 24 26  4  0  0  0  0
 26  6  4  0  0  0  0
 26 27  1  0  0  0  0
M  END
> <CAS>
3153-44-4

> <NAME>
BENZENEBUTANOIC ACID, 4-METHOXY-?-OXO-

> <preferred_name>
3-(4-Methoxybenzoyl)propionic acid

> <iupac>
4-(4-methoxyphenyl)-4-oxobutanoic acid

> <SMILES>
COc1ccc(cc1)C(=O)CCC(O)=O

> <Canonical_QSARr>
COc1ccc(cc1)C(=O)CCC(O)=O

> <InChI_Code_QSARr>
InChI=1S/C11H12O4/c1-15-9-4-2-8(3-5-9)10(12)6-7-11(13)14/h2-5H,6-7H2,1H3,(H,13,14)

> <InChI Key_QSARr>
OMTDIBZSUZNVJK-UHFFFAOYSA-N

> <Salt_Solvent>
?

> <WS Temperature>
25

> <WS Reference>
BEILSTEIN

> <dsstox_substance_id>
DTXSID50185432

> <LogMolar>
-1.0632

$$$$
3192-10-7
  -INDIGO-01081615412D

 21 21  0  0  0  0  0  0  0  0999 V2000
    4.1569   -0.8000    0.0000 C   0  0  0  0  0  0  0  0  0  0  0  0
    2.7712   -0.0000    0.0000 S   0  0  0  0  0  0  0  0  0  0  0  0
    3.5713    1.3856    0.0000 O   0  0  0  0  0  0  0  0  0  0  0  0
    1.3856    0.8000    0.0000 N   0  0  0  0  0  0  0  0  0  0  0  0
    0.0001   -0.0000    0.0000 C   0  0  0  0  0  0  0  0  0  0  0  0
   -1.3856    0.8000    0.0000 C   0  0  0  0  0  0  0  0  0  0  0  0
   -1.3856    2.4000    0.0000 H   0  0  0  0  0  0  0  0  0  0  0  0
   -2.7713   -0.0000    0.0000 C   0  0  0  0  0  0  0  0  0  0  0  0
   -4.1569    0.8000    0.0000 H   0  0  0  0  0  0  0  0  0  0  0  0
   -2.7713   -1.6000    0.0000 C   0  0  0  0  0  0  0  0  0  0  0  0
   -4.1569   -2.4000    0.0000 H   0  0  0  0  0  0  0  0  0  0  0  0
   -1.3856   -2.4000    0.0000 C   0  0  0  0  0  0  0  0  0  0  0  0
   -1.3856   -4.0000    0.0000 H   0  0  0  0  0  0  0  0  0  0  0  0
    0.0001   -1.6000    0.0000 C   0  0  0  0  0  0  0  0  0  0  0  0
    1.3856   -2.4000    0.0000 H   0  0  0  0  0  0  0  0  0  0  0  0
    1.3856    2.4000    0.0000 H   0  0  0  0  0  0  0  0  0  0  0  0
    1.9713   -1.3856    0.0000 O   0  0  0  0  0  0  0  0  0  0  0  0
    5.5425   -0.0000    0.0000 C   0  0  0  0  0  0  0  0  0  0  0  0
    6.9282   -0.8000    0.0000 H   0  0  0  0  0  0  0  0  0  0  0  0
    5.5425    1.6000    0.0000 H   0  0  0  0  0  0  0  0  0  0  0  0
    4.1569   -2.4000    0.0000 H   0  0  0  0  0  0  0  0  0  0  0  0
  1  2  1  0  0  0  0
  2  3  2  0  0  0  0
  2  4  1  0  0  0  0
  4  5  1  0  0  0  0
  5  6  4  0  0  0  0
  6  7  1  0  0  0  0
  6  8  4  0  0  0  0
  8  9  1  0  0  0  0
  8 10  4  0  0  0  0
 10 11  1  0  0  0  0
 10 12  4  0  0  0  0
 12 13  1  0  0  0  0
 12 14  4  0  0  0  0
 14  5  4  0  0  0  0
 14 15  1  0  0  0  0
  4 16  1  0  0  0  0
  2 17  2  0  0  0  0
  1 18  2  0  0  0  0
 18 19  1  0  0  0  0
 18 20  1  0  0  0  0
  1 21  1  0  0  0  0
M  END
> <CAS>
3192-10-7

> <NAME>
Ethenesulfonamide, N-phenyl-

> <preferred_name>


> <iupac>


> <SMILES>
C=CS(=O)(=O)Nc1ccccc1

> <Canonical_QSARr>
C=CS(=O)(=O)Nc1ccccc1

> <InChI_Code_QSARr>
InChI=1S/C8H9NO2S/c1-2-12(10,11)9-8-6-4-3-5-7-8/h2-7,9H,1H2

> <InChI Key_QSARr>
YRLXBWHNSONKOH-UHFFFAOYSA-N

> <Salt_Solvent>
?

> <WS Temperature>
20

> <WS Reference>
BEILSTEIN

> <dsstox_substance_id>


> <LogMolar>
-1.4996

$$$$
3202-84-4
  -INDIGO-01081615412D

 28 29  0  0  0  0  0  0  0  0999 V2000
    2.7714    1.6000    0.0000 O   0  0  0  0  0  0  0  0  0  0  0  0
    1.3857    2.4000    0.0000 C   0  0  0  0  0  0  0  0  0  0  0  0
    2.4142    3.6257    0.0000 H   0  0  0  0  0  0  0  0  0  0  0  0
    0.3572    3.6257    0.0000 H   0  0  0  0  0  0  0  0  0  0  0  0
    0.0000    1.6000    0.0000 C   0  0  0  0  0  0  0  0  0  0  0  0
   -0.5473    3.1035    0.0000 H   0  0  0  0  0  0  0  0  0  0  0  0
   -1.5756    1.3222    0.0000 H   0  0  0  0  0  0  0  0  0  0  0  0
    0.0000    0.0000    0.0000 N   0  0  0  0  0  0  0  0  0  0  0  0
   -1.3857   -0.8000    0.0000 C   0  0  0  0  0  0  0  0  0  0  0  0
   -2.7713    0.0000    0.0000 C   0  0  0  0  0  0  0  0  0  0  0  0
   -2.7713    1.6000    0.0000 C   0  0  0  0  0  0  0  0  0  0  0  0
   -1.3857    2.4000    0.0000 H   0  0  0  0  0  0  0  0  0  0  0  0
   -4.1569    2.4000    0.0000 C   0  0  0  0  0  0  0  0  0  0  0  0
   -4.1569    4.0000    0.0000 H   0  0  0  0  0  0  0  0  0  0  0  0
   -5.5425    1.6000    0.0000 C   0  0  0  0  0  0  0  0  0  0  0  0
   -6.9282    2.4000    0.0000 H   0  0  0  0  0  0  0  0  0  0  0  0
   -5.5425    0.0000    0.0000 C   0  0  0  0  0  0  0  0  0  0  0  0
   -6.9282   -0.8000    0.0000 H   0  0  0  0  0  0  0  0  0  0  0  0
   -4.1569   -0.8000    0.0000 C   0  0  0  0  0  0  0  0  0  0  0  0
   -4.1569   -2.4000    0.0000 O   0  0  0  0  0  0  0  0  0  0  0  0
   -5.5425   -3.2000    0.0000 H   0  0  0  0  0  0  0  0  0  0  0  0
   -1.3857   -2.4000    0.0000 O   0  0  0  0  0  0  0  0  0  0  0  0
    1.3857   -0.8000    0.0000 C   0  0  0  0  0  0  0  0  0  0  0  0
    0.3572   -2.0257    0.0000 H   0  0  0  0  0  0  0  0  0  0  0  0
    2.4142   -2.0257    0.0000 H   0  0  0  0  0  0  0  0  0  0  0  0
    2.7714    0.0000    0.0000 C   0  0  0  0  0  0  0  0  0  0  0  0
    3.3185   -1.5035    0.0000 H   0  0  0  0  0  0  0  0  0  0  0  0
    4.3470    0.2779    0.0000 H   0  0  0  0  0  0  0  0  0  0  0  0
  1  2  1  0  0  0  0
  2  3  1  0  0  0  0
  2  4  1  0  0  0  0
  2  5  1  0  0  0  0
  5  6  1  0  0  0  0
  5  7  1  0  0  0  0
  5  8  1  0  0  0  0
  8  9  1  0  0  0  0
  9 10  1  0  0  0  0
 10 11  4  0  0  0  0
 11 12  1  0  0  0  0
 11 13  4  0  0  0  0
 13 14  1  0  0  0  0
 13 15  4  0  0  0  0
 15 16  1  0  0  0  0
 15 17  4  0  0  0  0
 17 18  1  0  0  0  0
 17 19  4  0  0  0  0
 19 10  4  0  0  0  0
 19 20  1  0  0  0  0
 20 21  1  0  0  0  0
  9 22  2  0  0  0  0
  8 23  1  0  0  0  0
 23 24  1  0  0  0  0
 23 25  1  0  0  0  0
 23 26  1  0  0  0  0
 26  1  1  0  0  0  0
 26 27  1  0  0  0  0
 26 28  1  0  0  0  0
M  END
> <CAS>
3202-84-4

> <NAME>
MORPHOLINE, 4-(2-HYDROXYBENZOYL)-

> <preferred_name>
2-(morpholin-4-ylcarbonyl)phenol

> <iupac>
C11H13NO3

> <SMILES>
Oc1ccccc1C(=O)N1CCOCC1

> <Canonical_QSARr>
Oc1ccccc1C(=O)N1CCOCC1

> <InChI_Code_QSARr>
InChI=1S/C11H13NO3/c13-10-4-2-1-3-9(10)11(14)12-5-7-15-8-6-12/h1-4,13H,5-8H2

> <InChI Key_QSARr>
TUFGIGGYNZUDAL-UHFFFAOYSA-N

> <Salt_Solvent>
?

> <WS Temperature>


> <WS Reference>
MERCK INDEX (1996)

> <dsstox_substance_id>
DTXSID20281834

> <LogMolar>
-1.7037

$$$$
3248-05-3
  -INDIGO-01081615412D

 28 30  0  0  0  0  0  0  0  0999 V2000
   -2.4001    1.3856    0.0000 C   0  0  0  0  0  0  0  0  0  0  0  0
   -3.2001    2.7713    0.0000 N   0  0  0  1  0  0  0  0  0  0  0  0
   -4.8000    2.7713    0.0000 C   0  0  0  0  0  0  0  0  0  0  0  0
   -5.6000    4.1569    0.0000 H   0  0  0  0  0  0  0  0  0  0  0  0
   -5.6000    1.3856    0.0000 C   0  0  0  0  0  0  0  0  0  0  0  0
   -7.2000    1.3856    0.0000 H   0  0  0  0  0  0  0  0  0  0  0  0
   -4.8000   -0.0000    0.0000 C   0  0  0  0  0  0  0  0  0  0  0  0
   -5.6000   -1.3856    0.0000 C   0  0  0  0  0  0  0  0  0  0  0  0
   -6.4000   -2.7713    0.0000 H   0  0  0  0  0  0  0  0  0  0  0  0
   -7.2000   -1.3856    0.0000 H   0  0  0  0  0  0  0  0  0  0  0  0
   -4.8000   -2.7713    0.0000 H   0  0  0  0  0  0  0  0  0  0  0  0
   -3.2001   -0.0000    0.0000 C   0  0  0  0  0  0  0  0  0  0  0  0
   -2.4001   -1.3856    0.0000 C   0  0  0  0  0  0  0  0  0  0  0  0
   -3.2001   -2.7713    0.0000 H   0  0  0  0  0  0  0  0  0  0  0  0
   -0.7999   -1.3856    0.0000 C   0  0  0  0  0  0  0  0  0  0  0  0
    0.0001   -2.7713    0.0000 H   0  0  0  0  0  0  0  0  0  0  0  0
    0.0001   -0.0000    0.0000 C   0  0  0  0  0  0  0  0  0  0  0  0
    1.6000   -0.0000    0.0000 C   0  0  0  0  0  0  0  0  0  0  0  0
    2.4000    1.3856    0.0000 C   0  0  0  0  0  0  0  0  0  0  0  0
    1.6000    2.7713    0.0000 C   0  0  0  0  0  0  0  0  0  0  0  0
    0.0001    2.7713    0.0000 N   0  0  0  1  0  0  0  0  0  0  0  0
   -0.7999    1.3856    0.0000 C   0  0  0  0  0  0  0  0  0  0  0  0
    2.4000    4.1569    0.0000 H   0  0  0  0  0  0  0  0  0  0  0  0
    4.0000    1.3856    0.0000 H   0  0  0  0  0  0  0  0  0  0  0  0
    2.4000   -1.3856    0.0000 C   0  0  0  0  0  0  0  0  0  0  0  0
    3.2000   -2.7713    0.0000 H   0  0  0  0  0  0  0  0  0  0  0  0
    4.0000   -1.3856    0.0000 H   0  0  0  0  0  0  0  0  0  0  0  0
    1.6000   -2.7713    0.0000 H   0  0  0  0  0  0  0  0  0  0  0  0
  1  2  4  0  0  0  0
  2  3  4  0  0  0  0
  3  4  1  0  0  0  0
  3  5  4  0  0  0  0
  5  6  1  0  0  0  0
  5  7  4  0  0  0  0
  7  8  1  0  0  0  0
  8  9  1  0  0  0  0
  8 10  1  0  0  0  0
  8 11  1  0  0  0  0
  7 12  4  0  0  0  0
 12  1  4  0  0  0  0
 12 13  4  0  0  0  0
 13 14  1  0  0  0  0
 13 15  4  0  0  0  0
 15 16  1  0  0  0  0
 15 17  4  0  0  0  0
 17 18  4  0  0  0  0
 18 19  4  0  0  0  0
 19 20  4  0  0  0  0
 20 21  4  0  0  0  0
 21 22  4  0  0  0  0
 22  1  4  0  0  0  0
 22 17  4  0  0  0  0
 20 23  1  0  0  0  0
 19 24  1  0  0  0  0
 18 25  1  0  0  0  0
 25 26  1  0  0  0  0
 25 27  1  0  0  0  0
 25 28  1  0  0  0  0
M  END
> <CAS>
3248-05-3

> <NAME>
1,10-Phenanthroline, 4,7-dimethyl-

> <preferred_name>
1,10-Phenanthroline, 4,7-dimethyl-

> <iupac>
4,7-Dimethyl-1,10-phenanthroline

> <SMILES>
Cc1cc[n]c2c3[n]ccc(C)c3ccc12

> <Canonical_QSARr>
Cc1cc[n]c2c3[n]ccc(C)c3ccc12

> <InChI_Code_QSARr>
InChI=1S/C14H12N2/c1-9-5-7-15-13-11(9)3-4-12-10(2)6-8-16-14(12)13/h3-8H,1-2H3

> <InChI Key_QSARr>
JIVLDFFWTQYGSR-UHFFFAOYSA-N

> <Salt_Solvent>
?

> <WS Temperature>
25

> <WS Reference>
YALKOWSKY,SH & DANNENFELSER,RM (1992)

> <dsstox_substance_id>
DTXSID9062932

> <LogMolar>
-3.9686

$$$$
3296-90-0
  -INDIGO-01081615412D

 19 18  0  0  0  0  0  0  0  0999 V2000
    1.6000   -2.7713    0.0000 O   0  0  0  0  0  0  0  0  0  0  0  0
    0.8000   -1.3856    0.0000 C   0  0  0  0  0  0  0  0  0  0  0  0
    0.0000    0.0000    0.0000 C   0  0  0  0  0  0  0  0  0  0  0  0
    1.3856    0.8000    0.0000 C   0  0  0  0  0  0  0  0  0  0  0  0
    2.7713    1.6000    0.0000 Br  0  0  0  0  0  0  0  0  0  0  0  0
    2.8892    0.2527    0.0000 H   0  0  0  0  0  0  0  0  0  0  0  0
    1.3856    2.4000    0.0000 H   0  0  0  0  0  0  0  0  0  0  0  0
   -1.3856   -0.8000    0.0000 C   0  0  0  0  0  0  0  0  0  0  0  0
   -2.7713   -1.6000    0.0000 Br  0  0  0  0  0  0  0  0  0  0  0  0
   -2.8892   -0.2527    0.0000 H   0  0  0  0  0  0  0  0  0  0  0  0
   -1.3856   -2.4000    0.0000 H   0  0  0  0  0  0  0  0  0  0  0  0
   -0.8000    1.3856    0.0000 C   0  0  0  0  0  0  0  0  0  0  0  0
   -1.6000    2.7713    0.0000 O   0  0  0  0  0  0  0  0  0  0  0  0
   -3.2000    2.7713    0.0000 H   0  0  0  0  0  0  0  0  0  0  0  0
   -2.3035    0.8384    0.0000 H   0  0  0  0  0  0  0  0  0  0  0  0
    0.4256    2.4141    0.0000 H   0  0  0  0  0  0  0  0  0  0  0  0
   -0.4256   -2.4141    0.0000 H   0  0  0  0  0  0  0  0  0  0  0  0
    2.1856   -0.5856    0.0000 H   0  0  0  0  0  0  0  0  0  0  0  0
    3.2000   -2.7713    0.0000 H   0  0  0  0  0  0  0  0  0  0  0  0
  1  2  1  0  0  0  0
  2  3  1  0  0  0  0
  3  4  1  0  0  0  0
  4  5  1  0  0  0  0
  4  6  1  0  0  0  0
  4  7  1  0  0  0  0
  3  8  1  0  0  0  0
  8  9  1  0  0  0  0
  8 10  1  0  0  0  0
  8 11  1  0  0  0  0
  3 12  1  0  0  0  0
 12 13  1  0  0  0  0
 13 14  1  0  0  0  0
 12 15  1  0  0  0  0
 12 16  1  0  0  0  0
  2 17  1  0  0  0  0
  2 18  1  0  0  0  0
  1 19  1  0  0  0  0
M  END
> <CAS>
3296-90-0

> <NAME>
1,3-PROPANEDIOL, 2,2-BIS(BRME)-

> <preferred_name>
2,2-Bis(bromomethyl)-1,3-propanediol

> <iupac>
2,2-bis(bromomethyl)propane-1,3-diol

> <SMILES>
OCC(CBr)(CBr)CO

> <Canonical_QSARr>
OCC(CBr)(CBr)CO

> <InChI_Code_QSARr>
InChI=1S/C5H10Br2O2/c6-1-5(2-7,3-8)4-9/h8-9H,1-4H2

> <InChI Key_QSARr>
CHUGKEQJSLOLHL-UHFFFAOYSA-N

> <Salt_Solvent>
?

> <WS Temperature>
25

> <WS Reference>
CHEMICALS INSPECTION AND TESTING INSTITU (1992)

> <dsstox_substance_id>
DTXSID9020164

> <LogMolar>
-0.8384

$$$$
3333-23-1
  -INDIGO-01081615412D

 23 24  0  0  0  0  0  0  0  0999 V2000
   -4.8000    2.7713    0.0000 O   0  0  0  0  0  0  0  0  0  0  0  0
   -3.2000    2.7713    0.0000 C   0  0  0  0  0  0  0  0  0  0  0  0
   -2.4000    1.3857    0.0000 C   0  0  0  0  0  0  0  0  0  0  0  0
   -3.2000    0.0000    0.0000 C   0  0  0  0  0  0  0  0  0  0  0  0
   -4.8000    0.0000    0.0000 H   0  0  0  0  0  0  0  0  0  0  0  0
   -2.4000   -1.3856    0.0000 C   0  0  0  0  0  0  0  0  0  0  0  0
   -3.9035   -1.9328    0.0000 H   0  0  0  0  0  0  0  0  0  0  0  0
   -2.1221   -2.9613    0.0000 H   0  0  0  0  0  0  0  0  0  0  0  0
   -0.7999   -1.3856    0.0000 C   0  0  0  0  0  0  0  0  0  0  0  0
   -1.0778   -2.9613    0.0000 H   0  0  0  0  0  0  0  0  0  0  0  0
    0.7035   -1.9328    0.0000 H   0  0  0  0  0  0  0  0  0  0  0  0
    0.0000    0.0000    0.0000 C   0  0  0  0  0  0  0  0  0  0  0  0
    1.6000    0.0000    0.0000 C   0  0  0  0  0  0  0  0  0  0  0  0
    2.4001    1.3857    0.0000 C   0  0  0  0  0  0  0  0  0  0  0  0
    1.6000    2.7713    0.0000 C   0  0  0  0  0  0  0  0  0  0  0  0
    0.0000    2.7713    0.0000 C   0  0  0  0  0  0  0  0  0  0  0  0
   -0.7999    4.1569    0.0000 H   0  0  0  0  0  0  0  0  0  0  0  0
   -0.7999    1.3857    0.0000 C   0  0  0  0  0  0  0  0  0  0  0  0
    2.4001    4.1569    0.0000 H   0  0  0  0  0  0  0  0  0  0  0  0
    4.0000    1.3857    0.0000 H   0  0  0  0  0  0  0  0  0  0  0  0
    2.4001   -1.3856    0.0000 H   0  0  0  0  0  0  0  0  0  0  0  0
   -2.4000    4.1569    0.0000 O   0  0  0  0  0  0  0  0  0  0  0  0
   -5.6000    4.1569    0.0000 H   0  0  0  0  0  0  0  0  0  0  0  0
  1  2  1  0  0  0  0
  2  3  1  0  0  0  0
  3  4  2  0  0  0  0
  4  5  1  0  0  0  0
  4  6  1  0  0  0  0
  6  7  1  0  0  0  0
  6  8  1  0  0  0  0
  6  9  1  0  0  0  0
  9 10  1  0  0  0  0
  9 11  1  0  0  0  0
  9 12  1  0  0  0  0
 12 13  4  0  0  0  0
 13 14  4  0  0  0  0
 14 15  4  0  0  0  0
 15 16  4  0  0  0  0
 16 17  1  0  0  0  0
 16 18  4  0  0  0  0
 18  3  1  0  0  0  0
 18 12  4  0  0  0  0
 15 19  1  0  0  0  0
 14 20  1  0  0  0  0
 13 21  1  0  0  0  0
  2 22  2  0  0  0  0
  1 23  1  0  0  0  0
M  END
> <CAS>
3333-23-1

> <NAME>
1-Naphthalenecarboxylic acid, 3,4-dihydro-

> <preferred_name>
1-Naphthalenecarboxylic acid, 3,4-dihydro-

> <iupac>
C11H10O2

> <SMILES>
OC(=O)C1=CCCc2ccccc21

> <Canonical_QSARr>
OC(=O)C1=CCCc2ccccc21

> <InChI_Code_QSARr>
InChI=1S/C11H10O2/c12-11(13)10-7-3-5-8-4-1-2-6-9(8)10/h1-2,4,6-7H,3,5H2,(H,12,13)

> <InChI Key_QSARr>
JNPFDSPGHQBUPF-UHFFFAOYSA-N

> <Salt_Solvent>
?

> <WS Temperature>


> <WS Reference>
BEILSTEIN

> <dsstox_substance_id>
DTXSID60342493

> <LogMolar>
-2.7939

$$$$
3386-97-8
  -INDIGO-01081615412D

 14 13  0  0  0  0  0  0  0  0999 V2000
    5.5426    0.0000    0.0000 S   0  0  0  0  0  0  0  0  0  0  0  0
    4.1569   -0.8000    0.0000 C   0  0  0  0  0  0  0  0  0  0  0  0
    2.7713   -1.6000    0.0000 N   0  0  0  0  0  0  0  0  0  0  0  0
    1.3857   -0.8000    0.0000 C   0  0  0  0  0  0  0  0  0  0  0  0
   -0.0001    0.0000    0.0000 C   0  0  0  0  0  0  0  0  0  0  0  0
   -1.3857    0.8000    0.0000 C   0  0  0  0  0  0  0  0  0  0  0  0
   -2.7713    0.0000    0.0000 C   0  0  0  0  0  0  0  0  0  0  0  0
   -4.1569    0.8000    0.0000 H   0  0  0  0  0  0  0  0  0  0  0  0
   -2.7713   -1.6000    0.0000 H   0  0  0  0  0  0  0  0  0  0  0  0
   -1.3857    2.4000    0.0000 H   0  0  0  0  0  0  0  0  0  0  0  0
    0.8001    1.3856    0.0000 H   0  0  0  0  0  0  0  0  0  0  0  0
   -0.8000   -1.3856    0.0000 H   0  0  0  0  0  0  0  0  0  0  0  0
    0.5856   -2.1856    0.0000 H   0  0  0  0  0  0  0  0  0  0  0  0
    2.1857    0.5856    0.0000 H   0  0  0  0  0  0  0  0  0  0  0  0
  1  2  2  0  0  0  0
  2  3  2  0  0  0  0
  3  4  1  0  0  0  0
  4  5  1  0  0  0  0
  5  6  1  0  0  0  0
  6  7  2  0  0  0  0
  7  8  1  0  0  0  0
  7  9  1  0  0  0  0
  6 10  1  0  0  0  0
  5 11  1  0  0  0  0
  5 12  1  0  0  0  0
  4 13  1  0  0  0  0
  4 14  1  0  0  0  0
M  END
> <CAS>
3386-97-8

> <NAME>
1-Butene, 4-isothiocyanato-

> <preferred_name>
3-Butenyl isothiocyanate

> <iupac>
4-isothiocyanatobut-1-ene

> <SMILES>
C=CCCN=C=S

> <Canonical_QSARr>
C=CCCN=C=S

> <InChI_Code_QSARr>
InChI=1S/C5H7NS/c1-2-3-4-6-5-7/h2H,1,3-4H2

> <InChI Key_QSARr>
SKIHGKNFJKJXPX-UHFFFAOYSA-N

> <Salt_Solvent>
?

> <WS Temperature>
20

> <WS Reference>
BEILSTEIN

> <dsstox_substance_id>
DTXSID30187494

> <LogMolar>
-2.391

$$$$
3452-09-3
  -INDIGO-01081615412D

 25 24  0  0  0  0  0  0  0  0999 V2000
    1.6001    0.0000    0.0000 C   0  0  0  0  0  0  0  0  0  0  0  0
    3.2000    0.0000    0.0000 C   0  0  0  0  0  0  0  0  0  0  0  0
    4.8001    0.0000    0.0000 C   0  0  0  0  0  0  0  0  0  0  0  0
    6.4000    0.0000    0.0000 C   0  0  0  0  0  0  0  0  0  0  0  0
    8.0001    0.0000    0.0000 C   0  0  0  0  0  0  0  0  0  0  0  0
    9.6000    0.0000    0.0000 H   0  0  0  0  0  0  0  0  0  0  0  0
    4.8001   -1.6000    0.0000 H   0  0  0  0  0  0  0  0  0  0  0  0
    4.8001    1.6000    0.0000 H   0  0  0  0  0  0  0  0  0  0  0  0
    3.2000   -1.6000    0.0000 H   0  0  0  0  0  0  0  0  0  0  0  0
    3.2000    1.6000    0.0000 H   0  0  0  0  0  0  0  0  0  0  0  0
    0.0000    0.0000    0.0000 C   0  0  0  0  0  0  0  0  0  0  0  0
   -1.5999    0.0000    0.0000 C   0  0  0  0  0  0  0  0  0  0  0  0
   -3.2000   -0.0000    0.0000 C   0  0  0  0  0  0  0  0  0  0  0  0
   -4.8001   -0.0000    0.0000 C   0  0  0  0  0  0  0  0  0  0  0  0
   -6.4000   -0.0000    0.0000 H   0  0  0  0  0  0  0  0  0  0  0  0
   -5.5999   -1.3856    0.0000 H   0  0  0  0  0  0  0  0  0  0  0  0
   -5.5999    1.3856    0.0000 H   0  0  0  0  0  0  0  0  0  0  0  0
   -3.2000    1.6000    0.0000 H   0  0  0  0  0  0  0  0  0  0  0  0
   -3.2000   -1.6000    0.0000 H   0  0  0  0  0  0  0  0  0  0  0  0
   -1.5999   -1.6000    0.0000 H   0  0  0  0  0  0  0  0  0  0  0  0
   -1.5999    1.6000    0.0000 H   0  0  0  0  0  0  0  0  0  0  0  0
    0.0000    1.6000    0.0000 H   0  0  0  0  0  0  0  0  0  0  0  0
    0.0000   -1.6000    0.0000 H   0  0  0  0  0  0  0  0  0  0  0  0
    1.6001   -1.6000    0.0000 H   0  0  0  0  0  0  0  0  0  0  0  0
    1.6001    1.6000    0.0000 H   0  0  0  0  0  0  0  0  0  0  0  0
  1  2  1  0  0  0  0
  2  3  1  0  0  0  0
  3  4  1  0  0  0  0
  4  5  3  0  0  0  0
  5  6  1  0  0  0  0
  3  7  1  0  0  0  0
  3  8  1  0  0  0  0
  2  9  1  0  0  0  0
  2 10  1  0  0  0  0
  1 11  1  0  0  0  0
 11 12  1  0  0  0  0
 12 13  1  0  0  0  0
 13 14  1  0  0  0  0
 14 15  1  0  0  0  0
 14 16  1  0  0  0  0
 14 17  1  0  0  0  0
 13 18  1  0  0  0  0
 13 19  1  0  0  0  0
 12 20  1  0  0  0  0
 12 21  1  0  0  0  0
 11 22  1  0  0  0  0
 11 23  1  0  0  0  0
  1 24  1  0  0  0  0
  1 25  1  0  0  0  0
M  END
> <CAS>
3452-09-3

> <NAME>
1-NONYNE

> <preferred_name>
1-Nonyne

> <iupac>
non-1-yne

> <SMILES>
CCCCCCCC#C

> <Canonical_QSARr>
CCCCCCCC#C

> <InChI_Code_QSARr>
InChI=1S/C9H16/c1-3-5-7-9-8-6-4-2/h1H,4-9H2,2H3

> <InChI Key_QSARr>
OSSQSXOTMIGBCF-UHFFFAOYSA-N

> <Salt_Solvent>
?

> <WS Temperature>
25

> <WS Reference>
SUZUKI,T (1991)

> <dsstox_substance_id>
DTXSID4063036

> <LogMolar>
-4.16725

$$$$
3555-18-8
  -INDIGO-01081615412D

 27 27  0  0  0  0  0  0  0  0999 V2000
    4.8000    0.0000    0.0000 C   0  0  0  0  0  0  0  0  0  0  0  0
    4.0000    1.3856    0.0000 C   0  0  0  0  0  0  0  0  0  0  0  0
    4.8000    2.7713    0.0000 H   0  0  0  0  0  0  0  0  0  0  0  0
    2.4000    1.3856    0.0000 C   0  0  0  0  0  0  0  0  0  0  0  0
    1.6000    2.7713    0.0000 H   0  0  0  0  0  0  0  0  0  0  0  0
    1.6000    0.0000    0.0000 C   0  0  0  0  0  0  0  0  0  0  0  0
   -0.0000    0.0000    0.0000 C   0  0  0  0  0  0  0  0  0  0  0  0
   -0.2779    1.5756    0.0000 C   0  0  0  0  0  0  0  0  0  0  0  0
   -0.5557    3.1514    0.0000 H   0  0  0  0  0  0  0  0  0  0  0  0
   -1.7814    2.1230    0.0000 H   0  0  0  0  0  0  0  0  0  0  0  0
    1.2256    1.0284    0.0000 H   0  0  0  0  0  0  0  0  0  0  0  0
   -1.5035   -0.5472    0.0000 C   0  0  0  0  0  0  0  0  0  0  0  0
   -3.0070   -1.0944    0.0000 C   0  0  0  0  0  0  0  0  0  0  0  0
   -4.5105   -1.6416    0.0000 H   0  0  0  0  0  0  0  0  0  0  0  0
   -3.2849   -2.6702    0.0000 H   0  0  0  0  0  0  0  0  0  0  0  0
   -4.2327   -0.0660    0.0000 H   0  0  0  0  0  0  0  0  0  0  0  0
   -0.9564   -2.0507    0.0000 H   0  0  0  0  0  0  0  0  0  0  0  0
   -2.3035    0.8384    0.0000 H   0  0  0  0  0  0  0  0  0  0  0  0
    0.2779   -1.5757    0.0000 H   0  0  0  0  0  0  0  0  0  0  0  0
    2.4000   -1.3856    0.0000 C   0  0  0  0  0  0  0  0  0  0  0  0
    1.6000   -2.7713    0.0000 H   0  0  0  0  0  0  0  0  0  0  0  0
    4.0000   -1.3856    0.0000 C   0  0  0  0  0  0  0  0  0  0  0  0
    4.8000   -2.7713    0.0000 N   0  0  0  0  0  0  0  0  0  0  0  0
    6.4000   -2.7713    0.0000 O   0  0  0  0  0  0  0  0  0  0  0  0
    4.0000   -4.1569    0.0000 O   0  0  0  0  0  0  0  0  0  0  0  0
    6.4000    0.0000    0.0000 O   0  0  0  0  0  0  0  0  0  0  0  0
    7.2000    1.3856    0.0000 H   0  0  0  0  0  0  0  0  0  0  0  0
  1  2  4  0  0  0  0
  2  3  1  0  0  0  0
  2  4  4  0  0  0  0
  4  5  1  0  0  0  0
  4  6  4  0  0  0  0
  6  7  1  0  0  0  0
  7  8  1  0  0  0  0
  8  9  1  0  0  0  0
  8 10  1  0  0  0  0
  8 11  1  0  0  0  0
  7 12  1  0  0  0  0
 12 13  1  0  0  0  0
 13 14  1  0  0  0  0
 13 15  1  0  0  0  0
 13 16  1  0  0  0  0
 12 17  1  0  0  0  0
 12 18  1  0  0  0  0
  7 19  1  0  0  0  0
  6 20  4  0  0  0  0
 20 21  1  0  0  0  0
 20 22  4  0  0  0  0
 22  1  4  0  0  0  0
 22 23  1  0  0  0  0
 23 24  2  0  0  0  0
 23 25  1  0  0  0  0
  1 26  1  0  0  0  0
 26 27  1  0  0  0  0
M  CHG  2  23   1  25  -1
M  END
> <CAS>
3555-18-8

> <NAME>
4-(SEC-BUTYL)-2-NITROPHENOL

> <preferred_name>


> <iupac>


> <SMILES>
CCC(C)c1cc(c(O)cc1)[N+]([O-])=O

> <Canonical_QSARr>
CCC(C)c1cc(c(O)cc1)[N+]([O-])=O

> <InChI_Code_QSARr>
InChI=1S/C10H13NO3/c1-3-7(2)8-4-5-10(12)9(6-8)11(13)14/h4-7,12H,3H2,1-2H3

> <InChI Key_QSARr>
GCDCKEORRIGZKI-UHFFFAOYSA-N

> <Salt_Solvent>
?

> <WS Temperature>
20

> <WS Reference>
SCHWARZENBACH,RP ET AL. (1988)

> <dsstox_substance_id>


> <LogMolar>
-3.8403

$$$$
3572-43-8
  -INDIGO-01081615412D

 38 39  0  0  0  0  0  0  0  0999 V2000
   -6.3029   -1.1113    0.0000 C   0  0  0  0  0  0  0  0  0  0  0  0
   -4.7270   -0.8335    0.0000 C   0  0  0  0  0  0  0  0  0  0  0  0
   -3.6986   -2.0592    0.0000 H   0  0  0  0  0  0  0  0  0  0  0  0
   -4.1799    0.6700    0.0000 C   0  0  0  0  0  0  0  0  0  0  0  0
   -2.6041    0.9478    0.0000 C   0  0  0  0  0  0  0  0  0  0  0  0
   -1.0284    1.2257    0.0000 N   0  0  0  0  0  0  0  0  0  0  0  0
   -0.0000   -0.0000    0.0000 C   0  0  0  0  0  0  0  0  0  0  0  0
   -0.0000   -1.6000    0.0000 C   0  0  0  0  0  0  0  0  0  0  0  0
   -1.5757   -1.3222    0.0000 H   0  0  0  0  0  0  0  0  0  0  0  0
   -0.5473   -3.1035    0.0000 H   0  0  0  0  0  0  0  0  0  0  0  0
    1.3856   -2.4000    0.0000 C   0  0  0  0  0  0  0  0  0  0  0  0
    0.3572   -3.6257    0.0000 H   0  0  0  0  0  0  0  0  0  0  0  0
    2.4142   -3.6257    0.0000 H   0  0  0  0  0  0  0  0  0  0  0  0
    2.7713   -1.6000    0.0000 C   0  0  0  0  0  0  0  0  0  0  0  0
    3.3186   -3.1035    0.0000 H   0  0  0  0  0  0  0  0  0  0  0  0
    4.3470   -1.3222    0.0000 H   0  0  0  0  0  0  0  0  0  0  0  0
    2.7713   -0.0000    0.0000 C   0  0  0  0  0  0  0  0  0  0  0  0
    4.3470   -0.2779    0.0000 H   0  0  0  0  0  0  0  0  0  0  0  0
    3.3186    1.5035    0.0000 H   0  0  0  0  0  0  0  0  0  0  0  0
    1.3856    0.8000    0.0000 C   0  0  0  0  0  0  0  0  0  0  0  0
    2.4142    2.0256    0.0000 H   0  0  0  0  0  0  0  0  0  0  0  0
    0.3572    2.0256    0.0000 H   0  0  0  0  0  0  0  0  0  0  0  0
   -1.5757   -0.2779    0.0000 H   0  0  0  0  0  0  0  0  0  0  0  0
   -0.4811    2.7291    0.0000 C   0  0  0  0  0  0  0  0  0  0  0  0
    0.3187    4.1148    0.0000 H   0  0  0  0  0  0  0  0  0  0  0  0
   -1.2812    4.1148    0.0000 H   0  0  0  0  0  0  0  0  0  0  0  0
   -2.0813    2.7291    0.0000 H   0  0  0  0  0  0  0  0  0  0  0  0
   -3.1513    2.4514    0.0000 H   0  0  0  0  0  0  0  0  0  0  0  0
   -2.6041   -0.6522    0.0000 H   0  0  0  0  0  0  0  0  0  0  0  0
   -5.2083    1.8957    0.0000 C   0  0  0  0  0  0  0  0  0  0  0  0
   -4.6611    3.3991    0.0000 N   0  0  0  0  0  0  0  0  0  0  0  0
   -5.6895    4.6248    0.0000 H   0  0  0  0  0  0  0  0  0  0  0  0
   -3.0854    3.6770    0.0000 H   0  0  0  0  0  0  0  0  0  0  0  0
   -6.7840    1.6178    0.0000 C   0  0  0  0  0  0  0  0  0  0  0  0
   -7.8124    2.8436    0.0000 Br  0  0  0  0  0  0  0  0  0  0  0  0
   -7.3313    0.1143    0.0000 C   0  0  0  0  0  0  0  0  0  0  0  0
   -8.9069   -0.1636    0.0000 H   0  0  0  0  0  0  0  0  0  0  0  0
   -6.8499   -2.6149    0.0000 Br  0  0  0  0  0  0  0  0  0  0  0  0
  1  2  4  0  0  0  0
  2  3  1  0  0  0  0
  2  4  4  0  0  0  0
  4  5  1  0  0  0  0
  5  6  1  0  0  0  0
  6  7  1  0  0  0  0
  7  8  1  0  0  0  0
  8  9  1  0  0  0  0
  8 10  1  0  0  0  0
  8 11  1  0  0  0  0
 11 12  1  0  0  0  0
 11 13  1  0  0  0  0
 11 14  1  0  0  0  0
 14 15  1  0  0  0  0
 14 16  1  0  0  0  0
 14 17  1  0  0  0  0
 17 18  1  0  0  0  0
 17 19  1  0  0  0  0
 17 20  1  0  0  0  0
 20  7  1  0  0  0  0
 20 21  1  0  0  0  0
 20 22  1  0  0  0  0
  7 23  1  0  0  0  0
  6 24  1  0  0  0  0
 24 25  1  0  0  0  0
 24 26  1  0  0  0  0
 24 27  1  0  0  0  0
  5 28  1  0  0  0  0
  5 29  1  0  0  0  0
  4 30  4  0  0  0  0
 30 31  1  0  0  0  0
 31 32  1  0  0  0  0
 31 33  1  0  0  0  0
 30 34  4  0  0  0  0
 34 35  1  0  0  0  0
 34 36  4  0  0  0  0
 36  1  4  0  0  0  0
 36 37  1  0  0  0  0
  1 38  1  0  0  0  0
M  END
> <CAS>
3572-43-8

> <NAME>
2-amino-3,5-dibromo-N-cyclohexyl-N-methylbenzene

> <preferred_name>
Bromhexine

> <iupac>
2,4-dibromo-6-{[cyclohexyl(methyl)amino]methyl}aniline

> <SMILES>
CN(Cc1cc(Br)cc(Br)c1N)C1CCCCC1

> <Canonical_QSARr>
CN(Cc1cc(Br)cc(Br)c1N)C1CCCCC1

> <InChI_Code_QSARr>
InChI=1S/C14H20Br2N2/c1-18(12-5-3-2-4-6-12)9-10-7-11(15)8-13(16)14(10)17/h7-8,12H,2-6,9,17H2,1H3

> <InChI Key_QSARr>
OJGDCBLYJGHCIH-UHFFFAOYSA-N

> <Salt_Solvent>
?

> <WS Temperature>


> <WS Reference>
MERCK INDEX (1996)

> <dsstox_substance_id>
DTXSID6022686

> <LogMolar>
-1.9733

$$$$
3625-25-0
  -INDIGO-01081615412D

 37 39  0  0  0  0  0  0  0  0999 V2000
    0.0001   -0.0000    0.0000 C   0  0  0  0  0  0  0  0  0  0  0  0
    0.0016    1.6000    0.0000 C   0  0  0  0  0  0  0  0  0  0  0  0
    0.0031    3.2000    0.0000 C   0  0  0  0  0  0  0  0  0  0  0  0
    1.2299    4.2272    0.0000 H   0  0  0  0  0  0  0  0  0  0  0  0
   -0.2732    4.7760    0.0000 H   0  0  0  0  0  0  0  0  0  0  0  0
    1.5061    2.6513    0.0000 H   0  0  0  0  0  0  0  0  0  0  0  0
    1.6016    1.5984    0.0000 H   0  0  0  0  0  0  0  0  0  0  0  0
   -1.5984    1.6016    0.0000 H   0  0  0  0  0  0  0  0  0  0  0  0
   -1.5755    0.2794    0.0000 C   0  0  0  0  0  0  0  0  0  0  0  0
   -2.8580    0.4988    0.0000 C   0  0  0  0  0  0  0  0  0  0  0  0
   -2.5370   -0.2534    0.0000 H   0  0  0  0  0  0  0  0  0  0  0  0
   -1.7562   -0.6612    0.0000 H   0  0  0  0  0  0  0  0  0  0  0  0
   -4.4901   -0.4433    0.0000 C   0  0  0  0  0  0  0  0  0  0  0  0
   -4.6726   -2.1439    0.0000 C   0  0  0  0  0  0  0  0  0  0  0  0
   -3.9962   -0.9093    0.0000 C   0  0  0  0  0  0  0  0  0  0  0  0
   -2.9103   -2.0844    0.0000 H   0  0  0  0  0  0  0  0  0  0  0  0
   -3.1913   -1.0548    0.0000 H   0  0  0  0  0  0  0  0  0  0  0  0
   -4.1450    0.5916    0.0000 C   0  0  0  0  0  0  0  0  0  0  0  0
   -5.5132    0.7868    0.0000 C   0  0  0  0  0  0  0  0  0  0  0  0
   -5.7312    2.3719    0.0000 H   0  0  0  0  0  0  0  0  0  0  0  0
   -6.9772    0.1413    0.0000 H   0  0  0  0  0  0  0  0  0  0  0  0
   -4.4618    2.1599    0.0000 H   0  0  0  0  0  0  0  0  0  0  0  0
   -2.6001    1.5182    0.0000 C   0  0  0  0  0  0  0  0  0  0  0  0
   -2.3299    3.0952    0.0000 H   0  0  0  0  0  0  0  0  0  0  0  0
   -6.2079   -2.5941    0.0000 H   0  0  0  0  0  0  0  0  0  0  0  0
   -3.6697   -3.3905    0.0000 H   0  0  0  0  0  0  0  0  0  0  0  0
   -6.0217   -0.9062    0.0000 H   0  0  0  0  0  0  0  0  0  0  0  0
    1.5759    0.2763    0.0000 C   0  0  0  0  0  0  0  0  0  0  0  0
    2.6057    1.5009    0.0000 O   0  0  0  0  0  0  0  0  0  0  0  0
    2.6031   -0.9504    0.0000 N   0  0  0  0  0  0  0  0  0  0  0  0
    4.1792   -0.6741    0.0000 H   0  0  0  0  0  0  0  0  0  0  0  0
    2.0545   -2.4533    0.0000 C   0  0  0  0  0  0  0  0  0  0  0  0
    3.0817   -3.6800    0.0000 O   0  0  0  0  0  0  0  0  0  0  0  0
    0.4786   -2.7296    0.0000 N   0  0  0  0  0  0  0  0  0  0  0  0
   -0.0702   -4.2326    0.0000 H   0  0  0  0  0  0  0  0  0  0  0  0
   -0.5488   -1.5030    0.0000 C   0  0  0  0  0  0  0  0  0  0  0  0
   -1.9352   -2.3016    0.0000 O   0  0  0  0  0  0  0  0  0  0  0  0
  1  2  1  0  0  0  0
  2  3  1  0  0  0  0
  3  4  1  0  0  0  0
  3  5  1  0  0  0  0
  3  6  1  0  0  0  0
  2  7  1  0  0  0  0
  2  8  1  0  0  0  0
  1  9  1  0  0  0  0
  9 10  1  0  0  0  0
 10 11  1  0  0  0  0
 10 12  1  0  0  0  0
 10 13  1  0  0  0  0
 13 14  1  0  0  0  0
 14 15  1  0  0  0  0
 15 16  1  0  0  0  0
 15 17  1  0  0  0  0
 15 18  1  0  0  0  0
 18 19  1  0  0  0  0
 19 13  1  0  0  0  0
 19 20  1  0  0  0  0
 19 21  1  0  0  0  0
 18 22  1  0  0  0  0
 18 23  1  0  0  0  0
 23  9  2  0  0  0  0
 23 24  1  0  0  0  0
 14 25  1  0  0  0  0
 14 26  1  0  0  0  0
 13 27  1  0  0  0  0
  1 28  1  0  0  0  0
 28 29  2  0  0  0  0
 28 30  1  0  0  0  0
 30 31  1  0  0  0  0
 30 32  1  0  0  0  0
 32 33  2  0  0  0  0
 32 34  1  0  0  0  0
 34 35  1  0  0  0  0
 34 36  1  0  0  0  0
 36  1  1  0  0  0  0
 36 37  2  0  0  0  0
M  END
> <CAS>
3625-25-0

> <NAME>
REPOSAL

> <preferred_name>


> <iupac>


> <SMILES>
CCC1(C2C[C@H]3C[C@H](CC3)C=2)C(=O)NC(=O)NC1=O

> <Canonical_QSARr>
CCC1(C2CC3CC(CC3)C=2)C(=O)NC(=O)NC1=O

> <InChI_Code_QSARr>
InChI=1S/C14H18N2O3/c1-2-14(11(17)15-13(19)16-12(14)18)10-6-8-3-4-9(5-8)7-10/h6,8-9H,2-5,7H2,1H3,(H2,15,16,17,18,19)

> <InChI Key_QSARr>
MKELYWOVSPVORM-UHFFFAOYSA-N

> <Salt_Solvent>
?

> <WS Temperature>
25

> <WS Reference>
YALKOWSKY,SH & DANNENFELSER,RM (1992)

> <dsstox_substance_id>


> <LogMolar>
-2.7696

$$$$
3663-34-1
  -INDIGO-01081615412D

 25 25  0  0  0  0  0  0  0  0999 V2000
    4.8000   -2.7713    0.0000 O   0  0  0  0  0  0  0  0  0  0  0  0
    5.6000   -1.3856    0.0000 C   0  0  0  0  0  0  0  0  0  0  0  0
    7.2000   -1.3856    0.0000 C   0  0  0  0  0  0  0  0  0  0  0  0
    8.8000   -1.3856    0.0000 H   0  0  0  0  0  0  0  0  0  0  0  0
    8.0000   -2.7713    0.0000 H   0  0  0  0  0  0  0  0  0  0  0  0
    8.0000    0.0000    0.0000 H   0  0  0  0  0  0  0  0  0  0  0  0
    4.8000    0.0000    0.0000 N   0  0  0  0  0  0  0  0  0  0  0  0
    3.2000   -0.0000    0.0000 C   0  0  0  0  0  0  0  0  0  0  0  0
    2.4000    1.3856    0.0000 C   0  0  0  0  0  0  0  0  0  0  0  0
    3.2000    2.7713    0.0000 H   0  0  0  0  0  0  0  0  0  0  0  0
    0.8000    1.3856    0.0000 C   0  0  0  0  0  0  0  0  0  0  0  0
    0.0000    2.7713    0.0000 H   0  0  0  0  0  0  0  0  0  0  0  0
    0.0000   -0.0000    0.0000 C   0  0  0  0  0  0  0  0  0  0  0  0
   -1.6000   -0.0000    0.0000 C   0  0  0  0  0  0  0  0  0  0  0  0
   -3.2000   -0.0000    0.0000 C   0  0  0  0  0  0  0  0  0  0  0  0
   -4.8000   -0.0000    0.0000 H   0  0  0  0  0  0  0  0  0  0  0  0
   -4.0000    1.3856    0.0000 H   0  0  0  0  0  0  0  0  0  0  0  0
   -4.0000   -1.3856    0.0000 H   0  0  0  0  0  0  0  0  0  0  0  0
   -1.6000    1.6000    0.0000 H   0  0  0  0  0  0  0  0  0  0  0  0
   -1.6000   -1.6000    0.0000 H   0  0  0  0  0  0  0  0  0  0  0  0
    0.8000   -1.3856    0.0000 C   0  0  0  0  0  0  0  0  0  0  0  0
    0.0000   -2.7713    0.0000 H   0  0  0  0  0  0  0  0  0  0  0  0
    2.4000   -1.3856    0.0000 C   0  0  0  0  0  0  0  0  0  0  0  0
    3.2000   -2.7713    0.0000 H   0  0  0  0  0  0  0  0  0  0  0  0
    5.6000    1.3856    0.0000 H   0  0  0  0  0  0  0  0  0  0  0  0
  1  2  2  0  0  0  0
  2  3  1  0  0  0  0
  3  4  1  0  0  0  0
  3  5  1  0  0  0  0
  3  6  1  0  0  0  0
  2  7  1  0  0  0  0
  7  8  1  0  0  0  0
  8  9  4  0  0  0  0
  9 10  1  0  0  0  0
  9 11  4  0  0  0  0
 11 12  1  0  0  0  0
 11 13  4  0  0  0  0
 13 14  1  0  0  0  0
 14 15  1  0  0  0  0
 15 16  1  0  0  0  0
 15 17  1  0  0  0  0
 15 18  1  0  0  0  0
 14 19  1  0  0  0  0
 14 20  1  0  0  0  0
 13 21  4  0  0  0  0
 21 22  1  0  0  0  0
 21 23  4  0  0  0  0
 23  8  4  0  0  0  0
 23 24  1  0  0  0  0
  7 25  1  0  0  0  0
M  END
> <CAS>
3663-34-1

> <NAME>
4-ETHYLACETANILIDE

> <preferred_name>
Acetamide, N-(4-ethylphenyl)-

> <iupac>
N-(4-Ethylphenyl)acetamide

> <SMILES>
CC(=O)Nc1ccc(CC)cc1

> <Canonical_QSARr>
CC(=O)Nc1ccc(CC)cc1

> <InChI_Code_QSARr>
InChI=1S/C10H13NO/c1-3-9-4-6-10(7-5-9)11-8(2)12/h4-7H,3H2,1-2H3,(H,11,12)

> <InChI Key_QSARr>
HOPWGOFWAPWHDS-UHFFFAOYSA-N

> <Salt_Solvent>
?

> <WS Temperature>
30

> <WS Reference>
BEILSTEIN

> <dsstox_substance_id>
DTXSID80190099

> <LogMolar>
-2.1453

$$$$
3691-35-8
  -INDIGO-01081615412D

 42 45  0  0  0  0  0  0  0  0999 V2000
   -5.1728    1.3761    0.0000 C   0  0  0  0  0  0  0  0  0  0  0  0
   -6.5584    2.1761    0.0000 C   0  0  0  0  0  0  0  0  0  0  0  0
   -6.5584    3.7761    0.0000 H   0  0  0  0  0  0  0  0  0  0  0  0
   -7.9442    1.3761    0.0000 C   0  0  0  0  0  0  0  0  0  0  0  0
   -9.3298    2.1761    0.0000 H   0  0  0  0  0  0  0  0  0  0  0  0
   -7.9442   -0.2239    0.0000 C   0  0  0  0  0  0  0  0  0  0  0  0
   -9.3298   -1.0239    0.0000 H   0  0  0  0  0  0  0  0  0  0  0  0
   -6.5584   -1.0239    0.0000 C   0  0  0  0  0  0  0  0  0  0  0  0
   -6.5584   -2.6239    0.0000 H   0  0  0  0  0  0  0  0  0  0  0  0
   -5.1728   -0.2239    0.0000 C   0  0  0  0  0  0  0  0  0  0  0  0
   -3.6511   -0.7183    0.0000 C   0  0  0  0  0  0  0  0  0  0  0  0
   -3.1568   -2.2399    0.0000 O   0  0  0  0  0  0  0  0  0  0  0  0
   -2.7108    0.5761    0.0000 C   0  0  0  0  0  0  0  0  0  0  0  0
   -1.5217   -0.4945    0.0000 C   0  0  0  0  0  0  0  0  0  0  0  0
   -0.0001   -0.0000    0.0000 C   0  0  0  0  0  0  0  0  0  0  0  0
    1.5217    0.4944    0.0000 C   0  0  0  0  0  0  0  0  0  0  0  0
    2.7108   -0.5762    0.0000 C   0  0  0  0  0  0  0  0  0  0  0  0
    2.3782   -2.1412    0.0000 H   0  0  0  0  0  0  0  0  0  0  0  0
    4.2324   -0.0818    0.0000 C   0  0  0  0  0  0  0  0  0  0  0  0
    5.4215   -1.1524    0.0000 H   0  0  0  0  0  0  0  0  0  0  0  0
    4.5650    1.4834    0.0000 C   0  0  0  0  0  0  0  0  0  0  0  0
    6.0868    1.9778    0.0000 Cl  0  0  0  0  0  0  0  0  0  0  0  0
    3.3761    2.5539    0.0000 C   0  0  0  0  0  0  0  0  0  0  0  0
    3.7087    4.1189    0.0000 H   0  0  0  0  0  0  0  0  0  0  0  0
    1.8543    2.0595    0.0000 C   0  0  0  0  0  0  0  0  0  0  0  0
    0.6654    3.1301    0.0000 H   0  0  0  0  0  0  0  0  0  0  0  0
    0.7512   -1.4127    0.0000 C   0  0  0  0  0  0  0  0  0  0  0  0
    0.1519   -2.8962    0.0000 C   0  0  0  0  0  0  0  0  0  0  0  0
   -1.3699   -3.3906    0.0000 H   0  0  0  0  0  0  0  0  0  0  0  0
    1.1368   -4.1570    0.0000 C   0  0  0  0  0  0  0  0  0  0  0  0
    0.5374   -5.6405    0.0000 H   0  0  0  0  0  0  0  0  0  0  0  0
    2.7212   -3.9343    0.0000 C   0  0  0  0  0  0  0  0  0  0  0  0
    3.7063   -5.1951    0.0000 H   0  0  0  0  0  0  0  0  0  0  0  0
    3.3206   -2.4508    0.0000 C   0  0  0  0  0  0  0  0  0  0  0  0
    4.9051   -2.2282    0.0000 H   0  0  0  0  0  0  0  0  0  0  0  0
    2.3356   -1.1901    0.0000 C   0  0  0  0  0  0  0  0  0  0  0  0
    2.9350    0.2935    0.0000 H   0  0  0  0  0  0  0  0  0  0  0  0
   -0.4944    1.5216    0.0000 H   0  0  0  0  0  0  0  0  0  0  0  0
   -1.8543   -2.0594    0.0000 O   0  0  0  0  0  0  0  0  0  0  0  0
   -1.5217    1.6467    0.0000 H   0  0  0  0  0  0  0  0  0  0  0  0
   -3.6511    1.8705    0.0000 C   0  0  0  0  0  0  0  0  0  0  0  0
   -3.1568    3.3924    0.0000 O   0  0  0  0  0  0  0  0  0  0  0  0
  1  2  4  0  0  0  0
  2  3  1  0  0  0  0
  2  4  4  0  0  0  0
  4  5  1  0  0  0  0
  4  6  4  0  0  0  0
  6  7  1  0  0  0  0
  6  8  4  0  0  0  0
  8  9  1  0  0  0  0
  8 10  4  0  0  0  0
 10  1  4  0  0  0  0
 10 11  1  0  0  0  0
 11 12  2  0  0  0  0
 11 13  1  0  0  0  0
 13 14  1  0  0  0  0
 14 15  1  0  0  0  0
 15 16  1  0  0  0  0
 16 17  4  0  0  0  0
 17 18  1  0  0  0  0
 17 19  4  0  0  0  0
 19 20  1  0  0  0  0
 19 21  4  0  0  0  0
 21 22  1  0  0  0  0
 21 23  4  0  0  0  0
 23 24  1  0  0  0  0
 23 25  4  0  0  0  0
 25 16  4  0  0  0  0
 25 26  1  0  0  0  0
 15 27  1  0  0  0  0
 27 28  4  0  0  0  0
 28 29  1  0  0  0  0
 28 30  4  0  0  0  0
 30 31  1  0  0  0  0
 30 32  4  0  0  0  0
 32 33  1  0  0  0  0
 32 34  4  0  0  0  0
 34 35  1  0  0  0  0
 34 36  4  0  0  0  0
 36 27  4  0  0  0  0
 36 37  1  0  0  0  0
 15 38  1  0  0  0  0
 14 39  2  0  0  0  0
 13 40  1  0  0  0  0
 13 41  1  0  0  0  0
 41  1  1  0  0  0  0
 41 42  2  0  0  0  0
M  END
> <CAS>
3691-35-8

> <NAME>
CHLOROPHACINONE

> <preferred_name>
Chlorophacinone

> <iupac>
2-[(4-chlorophenyl)(phenyl)acetyl]-1H-indene-1,3(2H)-dione

> <SMILES>
O=C(C(c1ccc(Cl)cc1)c1ccccc1)C1C(=O)c2ccccc2C1=O

> <Canonical_QSARr>
O=C(C(c1ccc(Cl)cc1)c1ccccc1)C1C(=O)c2ccccc2C1=O

> <InChI_Code_QSARr>
InChI=1S/C23H15ClO3/c24-16-12-10-15(11-13-16)19(14-6-2-1-3-7-14)23(27)20-21(25)17-8-4-5-9-18(17)22(20)26/h1-13,19-20H

> <InChI Key_QSARr>
UDHXJZHVNHGCEC-UHFFFAOYSA-N

> <Salt_Solvent>
?

> <WS Temperature>
20

> <WS Reference>
TOMLIN,C (1994)

> <dsstox_substance_id>
DTXSID2032348

> <LogMolar>
-3.5738

$$$$
3701-01-7
  -INDIGO-01081615412D

 22 22  0  0  0  0  0  0  0  0999 V2000
   -1.3856    0.8000    0.0000 S   0  0  0  0  0  0  0  0  0  0  0  0
    0.0001   -0.0000    0.0000 C   0  0  0  0  0  0  0  0  0  0  0  0
    0.0001   -1.6000    0.0000 C   0  0  0  0  0  0  0  0  0  0  0  0
   -1.3856   -2.4000    0.0000 H   0  0  0  0  0  0  0  0  0  0  0  0
    1.3857   -2.4000    0.0000 C   0  0  0  0  0  0  0  0  0  0  0  0
    1.3857   -4.0000    0.0000 H   0  0  0  0  0  0  0  0  0  0  0  0
    2.7712   -1.6000    0.0000 C   0  0  0  0  0  0  0  0  0  0  0  0
    4.1569   -2.4000    0.0000 H   0  0  0  0  0  0  0  0  0  0  0  0
    2.7712   -0.0000    0.0000 C   0  0  0  0  0  0  0  0  0  0  0  0
    4.1569    0.8000    0.0000 S   0  0  0  0  0  0  0  0  0  0  0  0
    5.5425    1.6000    0.0000 N   0  0  0  0  0  0  0  0  0  0  0  0
    6.9282    0.8000    0.0000 H   0  0  0  0  0  0  0  0  0  0  0  0
    5.5425    3.2000    0.0000 H   0  0  0  0  0  0  0  0  0  0  0  0
    4.9570   -0.5856    0.0000 O   0  0  0  0  0  0  0  0  0  0  0  0
    3.3570    2.1856    0.0000 O   0  0  0  0  0  0  0  0  0  0  0  0
    1.3857    0.8000    0.0000 C   0  0  0  0  0  0  0  0  0  0  0  0
    1.3856    2.4000    0.0000 H   0  0  0  0  0  0  0  0  0  0  0  0
   -2.7713    1.6000    0.0000 N   0  0  0  0  0  0  0  0  0  0  0  0
   -4.1569    0.8000    0.0000 H   0  0  0  0  0  0  0  0  0  0  0  0
   -2.7713    3.2000    0.0000 H   0  0  0  0  0  0  0  0  0  0  0  0
   -2.1857   -0.5856    0.0000 O   0  0  0  0  0  0  0  0  0  0  0  0
   -0.5857    2.1856    0.0000 O   0  0  0  0  0  0  0  0  0  0  0  0
  1  2  1  0  0  0  0
  2  3  4  0  0  0  0
  3  4  1  0  0  0  0
  3  5  4  0  0  0  0
  5  6  1  0  0  0  0
  5  7  4  0  0  0  0
  7  8  1  0  0  0  0
  7  9  4  0  0  0  0
  9 10  1  0  0  0  0
 10 11  1  0  0  0  0
 11 12  1  0  0  0  0
 11 13  1  0  0  0  0
 10 14  2  0  0  0  0
 10 15  2  0  0  0  0
  9 16  4  0  0  0  0
 16  2  4  0  0  0  0
 16 17  1  0  0  0  0
  1 18  1  0  0  0  0
 18 19  1  0  0  0  0
 18 20  1  0  0  0  0
  1 21  2  0  0  0  0
  1 22  2  0  0  0  0
M  END
> <CAS>
3701-01-7

> <NAME>
1,3-BENZENEDISULFONAMIDE

> <preferred_name>
1,3-BENZENEDISULFONAMIDE

> <iupac>
C6H8N2O4S2

> <SMILES>
NS(=O)(=O)c1cc(ccc1)S(N)(=O)=O

> <Canonical_QSARr>
NS(=O)(=O)c1cc(ccc1)S(N)(=O)=O

> <InChI_Code_QSARr>
InChI=1S/C6H8N2O4S2/c7-13(9,10)5-2-1-3-6(4-5)14(8,11)12/h1-4H,(H2,7,9,10)(H2,8,11,12)

> <InChI Key_QSARr>
HUYYFHGIHVULSU-UHFFFAOYSA-N

> <Salt_Solvent>
?

> <WS Temperature>
25

> <WS Reference>
BEILSTEIN

> <dsstox_substance_id>
DTXSID20389041

> <LogMolar>
-2.1693

$$$$
3734-95-0
  -INDIGO-01081615412D

 37 36  0  0  0  0  0  0  0  0999 V2000
    5.0143   -3.5712    0.0000 O   0  0  0  0  0  0  0  0  0  0  0  0
    6.4001   -2.7713    0.0000 P   0  0  0  0  0  0  0  0  0  0  0  0
    5.5999   -1.3857    0.0000 S   0  0  0  0  0  0  0  0  0  0  0  0
    4.0000   -1.3857    0.0000 C   0  0  0  0  0  0  0  0  0  0  0  0
    2.3999   -1.3857    0.0000 C   0  0  0  0  0  0  0  0  0  0  0  0
    1.5999    0.0001    0.0000 N   0  0  0  0  0  0  0  0  0  0  0  0
    0.0000    0.0001    0.0000 C   0  0  0  0  0  0  0  0  0  0  0  0
    0.0000   -1.6000    0.0000 C   0  0  0  0  0  0  0  0  0  0  0  0
    0.0000   -3.2000    0.0000 N   0  0  0  0  0  0  0  0  0  0  0  0
   -1.6001    0.0001    0.0000 C   0  0  0  0  0  0  0  0  0  0  0  0
   -3.2000    0.0001    0.0000 H   0  0  0  0  0  0  0  0  0  0  0  0
   -2.4000   -1.3857    0.0000 H   0  0  0  0  0  0  0  0  0  0  0  0
   -2.4000    1.3857    0.0000 H   0  0  0  0  0  0  0  0  0  0  0  0
    0.0000    1.6000    0.0000 C   0  0  0  0  0  0  0  0  0  0  0  0
    0.0000    3.2000    0.0000 H   0  0  0  0  0  0  0  0  0  0  0  0
    1.3856    2.4000    0.0000 H   0  0  0  0  0  0  0  0  0  0  0  0
   -1.3856    2.4000    0.0000 H   0  0  0  0  0  0  0  0  0  0  0  0
    2.3999    1.3857    0.0000 H   0  0  0  0  0  0  0  0  0  0  0  0
    1.5999   -2.7713    0.0000 O   0  0  0  0  0  0  0  0  0  0  0  0
    4.0000   -2.9856    0.0000 H   0  0  0  0  0  0  0  0  0  0  0  0
    4.0000    0.2144    0.0000 H   0  0  0  0  0  0  0  0  0  0  0  0
    7.2001   -4.1569    0.0000 O   0  0  0  0  0  0  0  0  0  0  0  0
    8.8000   -4.1569    0.0000 C   0  0  0  0  0  0  0  0  0  0  0  0
   10.4001   -4.1569    0.0000 C   0  0  0  0  0  0  0  0  0  0  0  0
   12.0000   -4.1569    0.0000 H   0  0  0  0  0  0  0  0  0  0  0  0
   11.2000   -5.5426    0.0000 H   0  0  0  0  0  0  0  0  0  0  0  0
   11.2000   -2.7713    0.0000 H   0  0  0  0  0  0  0  0  0  0  0  0
    8.8000   -5.7569    0.0000 H   0  0  0  0  0  0  0  0  0  0  0  0
    8.8000   -2.5570    0.0000 H   0  0  0  0  0  0  0  0  0  0  0  0
    7.7857   -1.9713    0.0000 O   0  0  0  0  0  0  0  0  0  0  0  0
    7.7857   -0.3713    0.0000 C   0  0  0  0  0  0  0  0  0  0  0  0
    7.7857    1.2288    0.0000 C   0  0  0  0  0  0  0  0  0  0  0  0
    7.7857    2.8287    0.0000 H   0  0  0  0  0  0  0  0  0  0  0  0
    9.1713    2.0287    0.0000 H   0  0  0  0  0  0  0  0  0  0  0  0
    6.4001    2.0287    0.0000 H   0  0  0  0  0  0  0  0  0  0  0  0
    9.3856   -0.3713    0.0000 H   0  0  0  0  0  0  0  0  0  0  0  0
    6.1856   -0.3713    0.0000 H   0  0  0  0  0  0  0  0  0  0  0  0
  1  2  2  0  0  0  0
  2  3  1  0  0  0  0
  3  4  1  0  0  0  0
  4  5  1  0  0  0  0
  5  6  1  0  0  0  0
  6  7  1  0  0  0  0
  7  8  1  0  0  0  0
  8  9  3  0  0  0  0
  7 10  1  0  0  0  0
 10 11  1  0  0  0  0
 10 12  1  0  0  0  0
 10 13  1  0  0  0  0
  7 14  1  0  0  0  0
 14 15  1  0  0  0  0
 14 16  1  0  0  0  0
 14 17  1  0  0  0  0
  6 18  1  0  0  0  0
  5 19  2  0  0  0  0
  4 20  1  0  0  0  0
  4 21  1  0  0  0  0
  2 22  1  0  0  0  0
 22 23  1  0  0  0  0
 23 24  1  0  0  0  0
 24 25  1  0  0  0  0
 24 26  1  0  0  0  0
 24 27  1  0  0  0  0
 23 28  1  0  0  0  0
 23 29  1  0  0  0  0
  2 30  1  0  0  0  0
 30 31  1  0  0  0  0
 31 32  1  0  0  0  0
 32 33  1  0  0  0  0
 32 34  1  0  0  0  0
 32 35  1  0  0  0  0
 31 36  1  0  0  0  0
 31 37  1  0  0  0  0
M  END
> <CAS>
3734-95-0

> <NAME>
Cyanthoate

> <preferred_name>
Cyanthoate

> <iupac>
S-{2-[(2-cyanopropan-2-yl)amino]-2-oxoethyl} O,O-diethyl phosphorothioate

> <SMILES>
CC(C)(C#N)NC(=O)CSP(=O)(OCC)OCC

> <Canonical_QSARr>
CC(C)(C#N)NC(=O)CSP(=O)(OCC)OCC

> <InChI_Code_QSARr>
InChI=1S/C10H19N2O4PS/c1-5-15-17(14,16-6-2)18-7-9(13)12-10(3,4)8-11/h5-7H2,1-4H3,(H,12,13)

> <InChI Key_QSARr>
TWDJIKFUVRYBJF-UHFFFAOYSA-N

> <Salt_Solvent>
?

> <WS Temperature>
20

> <WS Reference>
YALKOWSKY,SH & DANNENFELSER,RM (1992)

> <dsstox_substance_id>
DTXSID5041807

> <LogMolar>
-0.6237

$$$$
3741-00-2
  -INDIGO-01081615412D

 30 30  0  0  0  0  0  0  0  0999 V2000
   -0.0001    0.0000    0.0000 C   0  0  0  0  0  0  0  0  0  0  0  0
    1.5380   -0.4410    0.0000 C   0  0  0  0  0  0  0  0  0  0  0  0
    3.1293   -0.6083    0.0000 C   0  0  0  0  0  0  0  0  0  0  0  0
    4.7204   -0.7755    0.0000 C   0  0  0  0  0  0  0  0  0  0  0  0
    6.3117   -0.9427    0.0000 C   0  0  0  0  0  0  0  0  0  0  0  0
    7.9029   -1.1100    0.0000 C   0  0  0  0  0  0  0  0  0  0  0  0
    9.4942   -1.2772    0.0000 H   0  0  0  0  0  0  0  0  0  0  0  0
    8.5537   -2.5716    0.0000 H   0  0  0  0  0  0  0  0  0  0  0  0
    8.8434    0.1845    0.0000 H   0  0  0  0  0  0  0  0  0  0  0  0
    6.1444   -2.5340    0.0000 H   0  0  0  0  0  0  0  0  0  0  0  0
    6.4789    0.6485    0.0000 H   0  0  0  0  0  0  0  0  0  0  0  0
    4.5533   -2.3668    0.0000 H   0  0  0  0  0  0  0  0  0  0  0  0
    4.8878    0.8158    0.0000 H   0  0  0  0  0  0  0  0  0  0  0  0
    2.9619   -2.1995    0.0000 H   0  0  0  0  0  0  0  0  0  0  0  0
    3.2965    0.9830    0.0000 H   0  0  0  0  0  0  0  0  0  0  0  0
    1.6495   -2.0371    0.0000 H   0  0  0  0  0  0  0  0  0  0  0  0
    1.9791    1.0970    0.0000 H   0  0  0  0  0  0  0  0  0  0  0  0
   -1.0706    1.1890    0.0000 C   0  0  0  0  0  0  0  0  0  0  0  0
    0.2237    2.1295    0.0000 H   0  0  0  0  0  0  0  0  0  0  0  0
   -1.8705    2.5747    0.0000 H   0  0  0  0  0  0  0  0  0  0  0  0
   -2.5323    0.5382    0.0000 C   0  0  0  0  0  0  0  0  0  0  0  0
   -3.0268    2.0600    0.0000 H   0  0  0  0  0  0  0  0  0  0  0  0
   -4.0973    0.2056    0.0000 H   0  0  0  0  0  0  0  0  0  0  0  0
   -2.3650   -1.0530    0.0000 C   0  0  0  0  0  0  0  0  0  0  0  0
   -3.9650   -1.0530    0.0000 H   0  0  0  0  0  0  0  0  0  0  0  0
   -2.5323   -2.6443    0.0000 H   0  0  0  0  0  0  0  0  0  0  0  0
   -0.8000   -1.3857    0.0000 C   0  0  0  0  0  0  0  0  0  0  0  0
   -1.2944   -2.9073    0.0000 H   0  0  0  0  0  0  0  0  0  0  0  0
    0.7961   -1.4972    0.0000 H   0  0  0  0  0  0  0  0  0  0  0  0
    1.0705    1.1890    0.0000 H   0  0  0  0  0  0  0  0  0  0  0  0
  1  2  1  0  0  0  0
  2  3  1  0  0  0  0
  3  4  1  0  0  0  0
  4  5  1  0  0  0  0
  5  6  1  0  0  0  0
  6  7  1  0  0  0  0
  6  8  1  0  0  0  0
  6  9  1  0  0  0  0
  5 10  1  0  0  0  0
  5 11  1  0  0  0  0
  4 12  1  0  0  0  0
  4 13  1  0  0  0  0
  3 14  1  0  0  0  0
  3 15  1  0  0  0  0
  2 16  1  0  0  0  0
  2 17  1  0  0  0  0
  1 18  1  0  0  0  0
 18 19  1  0  0  0  0
 18 20  1  0  0  0  0
 18 21  1  0  0  0  0
 21 22  1  0  0  0  0
 21 23  1  0  0  0  0
 21 24  1  0  0  0  0
 24 25  1  0  0  0  0
 24 26  1  0  0  0  0
 24 27  1  0  0  0  0
 27  1  1  0  0  0  0
 27 28  1  0  0  0  0
 27 29  1  0  0  0  0
  1 30  1  0  0  0  0
M  END
> <CAS>
3741-00-2

> <NAME>
CYCLOPENTANE, PENTYL-

> <preferred_name>
Cyclopentane, pentyl-

> <iupac>
Pentylcyclopentane

> <SMILES>
CCCCCC1CCCC1

> <Canonical_QSARr>
CCCCCC1CCCC1

> <InChI_Code_QSARr>
InChI=1S/C10H20/c1-2-3-4-7-10-8-5-6-9-10/h10H,2-9H2,1H3

> <InChI Key_QSARr>
HPQURZRDYMUHJI-UHFFFAOYSA-N

> <Salt_Solvent>
?

> <WS Temperature>
25

> <WS Reference>
KERTES,AS (1989)

> <dsstox_substance_id>
DTXSID6074708

> <LogMolar>
-6.0863

$$$$
3772-76-7
  -INDIGO-01081615412D

 34 35  0  0  0  0  0  0  0  0999 V2000
    4.1570   -0.8000    0.0000 C   0  0  0  0  0  0  0  0  0  0  0  0
    2.7713    0.0000    0.0000 C   0  0  0  0  0  0  0  0  0  0  0  0
    2.7713    1.6000    0.0000 H   0  0  0  0  0  0  0  0  0  0  0  0
    1.3856   -0.8000    0.0000 C   0  0  0  0  0  0  0  0  0  0  0  0
   -0.0001    0.0000    0.0000 S   0  0  0  0  0  0  0  0  0  0  0  0
   -1.3856    0.8001    0.0000 N   0  0  0  0  0  0  0  0  0  0  0  0
   -2.7713    0.0000    0.0000 C   0  0  0  0  0  0  0  0  0  0  0  0
   -4.1570    0.8001    0.0000 N   0  0  0  1  0  0  0  0  0  0  0  0
   -5.5427    0.0000    0.0000 C   0  0  0  0  0  0  0  0  0  0  0  0
   -6.9281    0.8001    0.0000 C   0  0  0  0  0  0  0  0  0  0  0  0
   -8.3138    1.6000    0.0000 H   0  0  0  0  0  0  0  0  0  0  0  0
   -8.3138    0.0000    0.0000 H   0  0  0  0  0  0  0  0  0  0  0  0
   -6.9281    2.4000    0.0000 H   0  0  0  0  0  0  0  0  0  0  0  0
   -5.5427   -1.6000    0.0000 N   0  0  0  1  0  0  0  0  0  0  0  0
   -4.1570   -2.4000    0.0000 C   0  0  0  0  0  0  0  0  0  0  0  0
   -4.1570   -4.0000    0.0000 O   0  0  0  0  0  0  0  0  0  0  0  0
   -5.5427   -4.8001    0.0000 C   0  0  0  0  0  0  0  0  0  0  0  0
   -6.9281   -5.6000    0.0000 H   0  0  0  0  0  0  0  0  0  0  0  0
   -5.5427   -6.4000    0.0000 H   0  0  0  0  0  0  0  0  0  0  0  0
   -6.9281   -4.0000    0.0000 H   0  0  0  0  0  0  0  0  0  0  0  0
   -2.7713   -1.6000    0.0000 C   0  0  0  0  0  0  0  0  0  0  0  0
   -1.3856   -2.4000    0.0000 H   0  0  0  0  0  0  0  0  0  0  0  0
   -1.3856    2.4000    0.0000 H   0  0  0  0  0  0  0  0  0  0  0  0
   -0.7999   -1.3856    0.0000 O   0  0  0  0  0  0  0  0  0  0  0  0
    0.8000    1.3857    0.0000 O   0  0  0  0  0  0  0  0  0  0  0  0
    1.3856   -2.4000    0.0000 C   0  0  0  0  0  0  0  0  0  0  0  0
   -0.0001   -3.2000    0.0000 H   0  0  0  0  0  0  0  0  0  0  0  0
    2.7713   -3.2000    0.0000 C   0  0  0  0  0  0  0  0  0  0  0  0
    2.7713   -4.8001    0.0000 H   0  0  0  0  0  0  0  0  0  0  0  0
    4.1570   -2.4000    0.0000 C   0  0  0  0  0  0  0  0  0  0  0  0
    5.5425   -3.2000    0.0000 N   0  0  0  0  0  0  0  0  0  0  0  0
    5.5425   -4.8001    0.0000 H   0  0  0  0  0  0  0  0  0  0  0  0
    6.9282   -2.4000    0.0000 H   0  0  0  0  0  0  0  0  0  0  0  0
    5.5425    0.0000    0.0000 H   0  0  0  0  0  0  0  0  0  0  0  0
  1  2  4  0  0  0  0
  2  3  1  0  0  0  0
  2  4  4  0  0  0  0
  4  5  1  0  0  0  0
  5  6  1  0  0  0  0
  6  7  1  0  0  0  0
  7  8  4  0  0  0  0
  8  9  4  0  0  0  0
  9 10  1  0  0  0  0
 10 11  1  0  0  0  0
 10 12  1  0  0  0  0
 10 13  1  0  0  0  0
  9 14  4  0  0  0  0
 14 15  4  0  0  0  0
 15 16  1  0  0  0  0
 16 17  1  0  0  0  0
 17 18  1  0  0  0  0
 17 19  1  0  0  0  0
 17 20  1  0  0  0  0
 15 21  4  0  0  0  0
 21  7  4  0  0  0  0
 21 22  1  0  0  0  0
  6 23  1  0  0  0  0
  5 24  2  0  0  0  0
  5 25  2  0  0  0  0
  4 26  4  0  0  0  0
 26 27  1  0  0  0  0
 26 28  4  0  0  0  0
 28 29  1  0  0  0  0
 28 30  4  0  0  0  0
 30  1  4  0  0  0  0
 30 31  1  0  0  0  0
 31 32  1  0  0  0  0
 31 33  1  0  0  0  0
  1 34  1  0  0  0  0
M  END
> <CAS>
3772-76-7

> <NAME>
SULFAMETHOMIDINE

> <preferred_name>
Sulfamethomidine

> <iupac>
4-amino-N-(6-methoxy-2-methylpyrimidin-4-yl)benzenesulfonamide

> <SMILES>
Cc1[n]c(cc(NS(=O)(=O)c2ccc(N)cc2)[n]1)OC

> <Canonical_QSARr>
Cc1[n]c(cc(NS(=O)(=O)c2ccc(N)cc2)[n]1)OC

> <InChI_Code_QSARr>
InChI=1S/C12H14N4O3S/c1-8-14-11(7-12(15-8)19-2)16-20(17,18)10-5-3-9(13)4-6-10/h3-7H,13H2,1-2H3,(H,14,15,16)

> <InChI Key_QSARr>
QKLSCPPJEVXONT-UHFFFAOYSA-N

> <Salt_Solvent>
?

> <WS Temperature>


> <WS Reference>
YALKOWSKY,SH & DANNENFELSER,RM (1992)

> <dsstox_substance_id>
DTXSID0023616

> <LogMolar>
-2.543

$$$$
3820-67-5
  -INDIGO-01081615412D

 43 45  0  0  0  0  0  0  0  0999 V2000
   -4.6611    3.3992    0.0000 C   0  0  0  0  0  0  0  0  0  0  0  0
   -4.1138    4.9028    0.0000 C   0  0  0  0  0  0  0  0  0  0  0  0
   -2.5381    5.1806    0.0000 H   0  0  0  0  0  0  0  0  0  0  0  0
   -5.1422    6.1283    0.0000 C   0  0  0  0  0  0  0  0  0  0  0  0
   -4.5950    7.6319    0.0000 H   0  0  0  0  0  0  0  0  0  0  0  0
   -6.7179    5.8504    0.0000 C   0  0  0  0  0  0  0  0  0  0  0  0
   -7.7466    7.0762    0.0000 H   0  0  0  0  0  0  0  0  0  0  0  0
   -7.2652    4.3471    0.0000 C   0  0  0  0  0  0  0  0  0  0  0  0
   -8.8409    4.0692    0.0000 H   0  0  0  0  0  0  0  0  0  0  0  0
   -6.2368    3.1213    0.0000 C   0  0  0  0  0  0  0  0  0  0  0  0
   -6.7840    1.6177    0.0000 N   0  0  0  0  0  0  0  0  0  0  0  0
   -8.1697    0.8179    0.0000 C   0  0  0  0  0  0  0  0  0  0  0  0
   -9.5553    1.6177    0.0000 C   0  0  0  0  0  0  0  0  0  0  0  0
   -9.5553    3.2179    0.0000 H   0  0  0  0  0  0  0  0  0  0  0  0
  -10.9409    0.8179    0.0000 C   0  0  0  0  0  0  0  0  0  0  0  0
  -12.3266    1.6177    0.0000 H   0  0  0  0  0  0  0  0  0  0  0  0
  -10.9409   -0.7821    0.0000 N   0  0  0  1  0  0  0  0  0  0  0  0
   -9.5553   -1.5822    0.0000 C   0  0  0  0  0  0  0  0  0  0  0  0
   -9.5553   -3.1821    0.0000 C   0  0  0  0  0  0  0  0  0  0  0  0
   -8.1697   -3.9822    0.0000 C   0  0  0  0  0  0  0  0  0  0  0  0
   -8.1697   -5.5822    0.0000 Cl  0  0  0  0  0  0  0  0  0  0  0  0
   -6.7840   -3.1821    0.0000 C   0  0  0  0  0  0  0  0  0  0  0  0
   -6.7840   -1.5822    0.0000 C   0  0  0  0  0  0  0  0  0  0  0  0
   -5.3984   -0.7821    0.0000 H   0  0  0  0  0  0  0  0  0  0  0  0
   -8.1697   -0.7821    0.0000 C   0  0  0  0  0  0  0  0  0  0  0  0
   -5.3984   -3.9822    0.0000 H   0  0  0  0  0  0  0  0  0  0  0  0
  -10.9409   -3.9822    0.0000 H   0  0  0  0  0  0  0  0  0  0  0  0
   -5.5584    0.5894    0.0000 H   0  0  0  0  0  0  0  0  0  0  0  0
   -3.6327    2.1734    0.0000 C   0  0  0  0  0  0  0  0  0  0  0  0
   -4.1799    0.6701    0.0000 O   0  0  0  0  0  0  0  0  0  0  0  0
   -2.0570    2.4513    0.0000 O   0  0  0  0  0  0  0  0  0  0  0  0
   -1.0286    1.2256    0.0000 C   0  0  0  0  0  0  0  0  0  0  0  0
    0.0001    0.0000    0.0000 C   0  0  0  0  0  0  0  0  0  0  0  0
    1.0285   -1.2257    0.0000 C   0  0  0  0  0  0  0  0  0  0  0  0
    2.0569   -2.4514    0.0000 O   0  0  0  0  0  0  0  0  0  0  0  0
    1.5096   -3.9548    0.0000 H   0  0  0  0  0  0  0  0  0  0  0  0
    2.2541   -0.1972    0.0000 H   0  0  0  0  0  0  0  0  0  0  0  0
   -0.1971   -2.2542    0.0000 H   0  0  0  0  0  0  0  0  0  0  0  0
    1.2257    1.0284    0.0000 O   0  0  0  0  0  0  0  0  0  0  0  0
    2.8257    1.0284    0.0000 H   0  0  0  0  0  0  0  0  0  0  0  0
   -1.2256   -1.0285    0.0000 H   0  0  0  0  0  0  0  0  0  0  0  0
    0.1973    2.2541    0.0000 H   0  0  0  0  0  0  0  0  0  0  0  0
   -2.2542    0.1972    0.0000 H   0  0  0  0  0  0  0  0  0  0  0  0
  1  2  4  0  0  0  0
  2  3  1  0  0  0  0
  2  4  4  0  0  0  0
  4  5  1  0  0  0  0
  4  6  4  0  0  0  0
  6  7  1  0  0  0  0
  6  8  4  0  0  0  0
  8  9  1  0  0  0  0
  8 10  4  0  0  0  0
 10  1  4  0  0  0  0
 10 11  1  0  0  0  0
 11 12  1  0  0  0  0
 12 13  4  0  0  0  0
 13 14  1  0  0  0  0
 13 15  4  0  0  0  0
 15 16  1  0  0  0  0
 15 17  4  0  0  0  0
 17 18  4  0  0  0  0
 18 19  4  0  0  0  0
 19 20  4  0  0  0  0
 20 21  1  0  0  0  0
 20 22  4  0  0  0  0
 22 23  4  0  0  0  0
 23 24  1  0  0  0  0
 23 25  4  0  0  0  0
 25 12  4  0  0  0  0
 25 18  4  0  0  0  0
 22 26  1  0  0  0  0
 19 27  1  0  0  0  0
 11 28  1  0  0  0  0
  1 29  1  0  0  0  0
 29 30  2  0  0  0  0
 29 31  1  0  0  0  0
 31 32  1  0  0  0  0
 32 33  1  0  0  0  0
 33 34  1  0  0  0  0
 34 35  1  0  0  0  0
 35 36  1  0  0  0  0
 34 37  1  0  0  0  0
 34 38  1  0  0  0  0
 33 39  1  0  0  0  0
 39 40  1  0  0  0  0
 33 41  1  0  0  0  0
 32 42  1  0  0  0  0
 32 43  1  0  0  0  0
M  END
> <CAS>
3820-67-5

> <NAME>
Glafenine

> <preferred_name>
Glafenine

> <iupac>
2,3-dihydroxypropyl 2-[(7-chloroquinolin-4-yl)amino]benzoate

> <SMILES>
OCC(O)COC(=O)c1ccccc1Nc1cc[n]c2cc(Cl)ccc21

> <Canonical_QSARr>
OCC(O)COC(=O)c1ccccc1Nc1cc[n]c2cc(Cl)ccc21

> <InChI_Code_QSARr>
InChI=1S/C19H17ClN2O4/c20-12-5-6-14-17(7-8-21-18(14)9-12)22-16-4-2-1-3-15(16)19(25)26-11-13(24)10-23/h1-9,13,23-24H,10-11H2,(H,21,22)

> <InChI Key_QSARr>
GWOFUCIGLDBNKM-UHFFFAOYSA-N

> <Salt_Solvent>
?

> <WS Temperature>


> <WS Reference>
YALKOWSKY,SH & DANNENFELSER,RM (1992)

> <dsstox_substance_id>
DTXSID1048546

> <LogMolar>
-0.9694

$$$$
3952-78-1
  -INDIGO-01081615412D

 43 45  0  0  0  0  0  0  0  0999 V2000
   10.4000   -4.1569    0.0000 C   0  0  0  0  0  0  0  0  0  0  0  0
    8.7999   -4.1569    0.0000 C   0  0  0  0  0  0  0  0  0  0  0  0
    8.0001   -5.5426    0.0000 H   0  0  0  0  0  0  0  0  0  0  0  0
    8.0001   -2.7713    0.0000 C   0  0  0  0  0  0  0  0  0  0  0  0
    8.7999   -1.3857    0.0000 C   0  0  0  0  0  0  0  0  0  0  0  0
    8.0001    0.0001    0.0000 C   0  0  0  0  0  0  0  0  0  0  0  0
    6.3999    0.0001    0.0000 C   0  0  0  0  0  0  0  0  0  0  0  0
    5.6001    1.3857    0.0000 C   0  0  0  0  0  0  0  0  0  0  0  0
    6.3999    2.7713    0.0000 O   0  0  0  0  0  0  0  0  0  0  0  0
    5.6001    4.1569    0.0000 H   0  0  0  0  0  0  0  0  0  0  0  0
    4.0000    1.3857    0.0000 C   0  0  0  0  0  0  0  0  0  0  0  0
    3.1999    2.7713    0.0000 O   0  0  0  0  0  0  0  0  0  0  0  0
    4.0000    4.1569    0.0000 H   0  0  0  0  0  0  0  0  0  0  0  0
    3.1999    0.0001    0.0000 C   0  0  0  0  0  0  0  0  0  0  0  0
    1.6000    0.0001    0.0000 C   0  0  0  0  0  0  0  0  0  0  0  0
    0.0001    0.0001    0.0000 N   0  0  0  0  0  0  0  0  0  0  0  0
   -0.8000   -1.3857    0.0000 C   0  0  0  0  0  0  0  0  0  0  0  0
   -1.6000   -2.7713    0.0000 C   0  0  0  0  0  0  0  0  0  0  0  0
   -0.8000   -4.1569    0.0000 O   0  0  0  0  0  0  0  0  0  0  0  0
   -3.1999   -2.7713    0.0000 O   0  0  0  0  0  0  0  0  0  0  0  0
   -4.0000   -4.1569    0.0000 H   0  0  0  0  0  0  0  0  0  0  0  0
   -2.1855   -0.5856    0.0000 H   0  0  0  0  0  0  0  0  0  0  0  0
    0.5856   -2.1857    0.0000 H   0  0  0  0  0  0  0  0  0  0  0  0
   -0.8000    1.3857    0.0000 C   0  0  0  0  0  0  0  0  0  0  0  0
   -1.6000    2.7713    0.0000 C   0  0  0  0  0  0  0  0  0  0  0  0
   -0.8000    4.1569    0.0000 O   0  0  0  0  0  0  0  0  0  0  0  0
   -3.1999    2.7713    0.0000 O   0  0  0  0  0  0  0  0  0  0  0  0
   -4.0000    4.1569    0.0000 H   0  0  0  0  0  0  0  0  0  0  0  0
   -2.1855    0.5856    0.0000 H   0  0  0  0  0  0  0  0  0  0  0  0
    0.5856    2.1856    0.0000 H   0  0  0  0  0  0  0  0  0  0  0  0
    1.6000    1.6000    0.0000 H   0  0  0  0  0  0  0  0  0  0  0  0
    1.6000   -1.6000    0.0000 H   0  0  0  0  0  0  0  0  0  0  0  0
    4.0000   -1.3857    0.0000 C   0  0  0  0  0  0  0  0  0  0  0  0
    3.1999   -2.7713    0.0000 H   0  0  0  0  0  0  0  0  0  0  0  0
    5.6001   -1.3857    0.0000 C   0  0  0  0  0  0  0  0  0  0  0  0
    6.3999   -2.7713    0.0000 C   0  0  0  0  0  0  0  0  0  0  0  0
    5.6001   -4.1569    0.0000 O   0  0  0  0  0  0  0  0  0  0  0  0
    8.7999    1.3857    0.0000 O   0  0  0  0  0  0  0  0  0  0  0  0
   10.4000   -1.3857    0.0000 C   0  0  0  0  0  0  0  0  0  0  0  0
   11.2001    0.0001    0.0000 H   0  0  0  0  0  0  0  0  0  0  0  0
   11.2001   -2.7713    0.0000 C   0  0  0  0  0  0  0  0  0  0  0  0
   12.8000   -2.7713    0.0000 H   0  0  0  0  0  0  0  0  0  0  0  0
   11.2001   -5.5426    0.0000 H   0  0  0  0  0  0  0  0  0  0  0  0
  1  2  4  0  0  0  0
  2  3  1  0  0  0  0
  2  4  4  0  0  0  0
  4  5  4  0  0  0  0
  5  6  1  0  0  0  0
  6  7  1  0  0  0  0
  7  8  4  0  0  0  0
  8  9  1  0  0  0  0
  9 10  1  0  0  0  0
  8 11  4  0  0  0  0
 11 12  1  0  0  0  0
 12 13  1  0  0  0  0
 11 14  4  0  0  0  0
 14 15  1  0  0  0  0
 15 16  1  0  0  0  0
 16 17  1  0  0  0  0
 17 18  1  0  0  0  0
 18 19  2  0  0  0  0
 18 20  1  0  0  0  0
 20 21  1  0  0  0  0
 17 22  1  0  0  0  0
 17 23  1  0  0  0  0
 16 24  1  0  0  0  0
 24 25  1  0  0  0  0
 25 26  2  0  0  0  0
 25 27  1  0  0  0  0
 27 28  1  0  0  0  0
 24 29  1  0  0  0  0
 24 30  1  0  0  0  0
 15 31  1  0  0  0  0
 15 32  1  0  0  0  0
 14 33  4  0  0  0  0
 33 34  1  0  0  0  0
 33 35  4  0  0  0  0
 35  7  4  0  0  0  0
 35 36  1  0  0  0  0
 36  4  1  0  0  0  0
 36 37  2  0  0  0  0
  6 38  2  0  0  0  0
  5 39  4  0  0  0  0
 39 40  1  0  0  0  0
 39 41  4  0  0  0  0
 41  1  4  0  0  0  0
 41 42  1  0  0  0  0
  1 43  1  0  0  0  0
M  END
> <CAS>
3952-78-1

> <NAME>
Alizarin complexone

> <preferred_name>
Glycine, N-(carboxymethyl)-N-[(9,10-dihydro-3,4-dihydroxy-9,10-dioxo-2-anthracenyl)methyl]-

> <iupac>
2-[carboxymethyl-[(3,4-dihydroxy-9,10-dioxoanthracen-2-yl)methyl]amino]acetic acid

> <SMILES>
Oc1c2c(cc(CN(CC(O)=O)CC(O)=O)c1O)C(=O)c1ccccc1C2=O

> <Canonical_QSARr>
Oc1c2c(cc(CN(CC(O)=O)CC(O)=O)c1O)C(=O)c1ccccc1C2=O

> <InChI_Code_QSARr>
InChI=1S/C19H15NO8/c21-13(22)7-20(8-14(23)24)6-9-5-12-15(19(28)16(9)25)18(27)11-4-2-1-3-10(11)17(12)26/h1-5,25,28H,6-8H2,(H,21,22)(H,23,24)

> <InChI Key_QSARr>
PWIGYBONXWGOQE-UHFFFAOYSA-N

> <Salt_Solvent>
?

> <WS Temperature>


> <WS Reference>
GREEN,FJ (1990)

> <dsstox_substance_id>
DTXSID4063240

> <LogMolar>
-1.8077

$$$$
3974-36-5
  -INDIGO-01081615412D

 29 28  0  0  0  0  0  0  0  0999 V2000
   -3.3812   -2.1230    0.0000 O   0  0  0  0  0  0  0  0  0  0  0  0
   -1.8779   -1.5757    0.0000 C   0  0  0  0  0  0  0  0  0  0  0  0
   -1.6000   -0.0000    0.0000 C   0  0  0  0  0  0  0  0  0  0  0  0
   -3.1757    0.2779    0.0000 C   0  0  0  0  0  0  0  0  0  0  0  0
   -4.2042   -0.9479    0.0000 O   0  0  0  0  0  0  0  0  0  0  0  0
   -3.7229    1.7814    0.0000 O   0  0  0  0  0  0  0  0  0  0  0  0
   -5.2986    2.0592    0.0000 H   0  0  0  0  0  0  0  0  0  0  0  0
   -0.0000   -0.0000    0.0000 C   0  0  0  0  0  0  0  0  0  0  0  0
    1.6000   -0.0000    0.0000 C   0  0  0  0  0  0  0  0  0  0  0  0
    3.2000   -0.0000    0.0000 C   0  0  0  0  0  0  0  0  0  0  0  0
    4.8000   -0.0000    0.0000 C   0  0  0  0  0  0  0  0  0  0  0  0
    6.4000   -0.0000    0.0000 C   0  0  0  0  0  0  0  0  0  0  0  0
    8.0000   -0.0000    0.0000 C   0  0  0  0  0  0  0  0  0  0  0  0
    9.6000   -0.0000    0.0000 H   0  0  0  0  0  0  0  0  0  0  0  0
    8.8000    1.3857    0.0000 H   0  0  0  0  0  0  0  0  0  0  0  0
    8.8000   -1.3857    0.0000 H   0  0  0  0  0  0  0  0  0  0  0  0
    6.4000    1.6000    0.0000 H   0  0  0  0  0  0  0  0  0  0  0  0
    6.4000   -1.6000    0.0000 H   0  0  0  0  0  0  0  0  0  0  0  0
    4.8000    1.6000    0.0000 H   0  0  0  0  0  0  0  0  0  0  0  0
    4.8000   -1.6000    0.0000 H   0  0  0  0  0  0  0  0  0  0  0  0
    3.2000   -1.6000    0.0000 H   0  0  0  0  0  0  0  0  0  0  0  0
    3.2000    1.6000    0.0000 H   0  0  0  0  0  0  0  0  0  0  0  0
    1.6000   -1.6000    0.0000 H   0  0  0  0  0  0  0  0  0  0  0  0
    1.6000    1.6000    0.0000 H   0  0  0  0  0  0  0  0  0  0  0  0
   -0.0000    1.6000    0.0000 H   0  0  0  0  0  0  0  0  0  0  0  0
   -0.0000   -1.6000    0.0000 H   0  0  0  0  0  0  0  0  0  0  0  0
   -1.3222    1.5757    0.0000 H   0  0  0  0  0  0  0  0  0  0  0  0
   -0.8494   -2.8013    0.0000 O   0  0  0  0  0  0  0  0  0  0  0  0
   -3.6593   -3.6986    0.0000 H   0  0  0  0  0  0  0  0  0  0  0  0
  1  2  1  0  0  0  0
  2  3  1  0  0  0  0
  3  4  1  0  0  0  0
  4  5  2  0  0  0  0
  4  6  1  0  0  0  0
  6  7  1  0  0  0  0
  3  8  1  0  0  0  0
  8  9  1  0  0  0  0
  9 10  1  0  0  0  0
 10 11  1  0  0  0  0
 11 12  1  0  0  0  0
 12 13  1  0  0  0  0
 13 14  1  0  0  0  0
 13 15  1  0  0  0  0
 13 16  1  0  0  0  0
 12 17  1  0  0  0  0
 12 18  1  0  0  0  0
 11 19  1  0  0  0  0
 11 20  1  0  0  0  0
 10 21  1  0  0  0  0
 10 22  1  0  0  0  0
  9 23  1  0  0  0  0
  9 24  1  0  0  0  0
  8 25  1  0  0  0  0
  8 26  1  0  0  0  0
  3 27  1  0  0  0  0
  2 28  2  0  0  0  0
  1 29  1  0  0  0  0
M  END
> <CAS>
3974-36-5

> <NAME>
Propanedioic acid, hexyl-

> <preferred_name>
Hexylmalonic acid

> <iupac>
C9H16O4

> <SMILES>
CCCCCCC(C(O)=O)C(O)=O

> <Canonical_QSARr>
CCCCCCC(C(O)=O)C(O)=O

> <InChI_Code_QSARr>
InChI=1S/C9H16O4/c1-2-3-4-5-6-7(8(10)11)9(12)13/h7H,2-6H2,1H3,(H,10,11)(H,12,13)

> <InChI Key_QSARr>
UPFSMSDGKQSRLD-UHFFFAOYSA-N

> <Salt_Solvent>
?

> <WS Temperature>
25

> <WS Reference>
BEILSTEIN

> <dsstox_substance_id>
DTXSID90325931

> <LogMolar>
-1.6566

$$$$
4079-52-1
  -INDIGO-01081615412D

 21 21  0  0  0  0  0  0  0  0999 V2000
    4.1569   -0.8000    0.0000 O   0  0  0  0  0  0  0  0  0  0  0  0
    5.5425   -0.0000    0.0000 C   0  0  0  0  0  0  0  0  0  0  0  0
    6.9282    0.8000    0.0000 H   0  0  0  0  0  0  0  0  0  0  0  0
    6.9282   -0.8000    0.0000 H   0  0  0  0  0  0  0  0  0  0  0  0
    5.5425    1.6000    0.0000 H   0  0  0  0  0  0  0  0  0  0  0  0
    2.7712   -0.0000    0.0000 C   0  0  0  0  0  0  0  0  0  0  0  0
    1.3857    0.8000    0.0000 C   0  0  0  0  0  0  0  0  0  0  0  0
    0.0001   -0.0000    0.0000 C   0  0  0  0  0  0  0  0  0  0  0  0
   -1.3856    0.8000    0.0000 C   0  0  0  0  0  0  0  0  0  0  0  0
   -1.3856    2.4000    0.0000 H   0  0  0  0  0  0  0  0  0  0  0  0
   -2.7713   -0.0000    0.0000 C   0  0  0  0  0  0  0  0  0  0  0  0
   -4.1569    0.8000    0.0000 H   0  0  0  0  0  0  0  0  0  0  0  0
   -2.7713   -1.6000    0.0000 C   0  0  0  0  0  0  0  0  0  0  0  0
   -4.1569   -2.4000    0.0000 H   0  0  0  0  0  0  0  0  0  0  0  0
   -1.3856   -2.4000    0.0000 C   0  0  0  0  0  0  0  0  0  0  0  0
   -1.3856   -4.0000    0.0000 H   0  0  0  0  0  0  0  0  0  0  0  0
    0.0001   -1.6000    0.0000 C   0  0  0  0  0  0  0  0  0  0  0  0
    1.3857   -2.4000    0.0000 H   0  0  0  0  0  0  0  0  0  0  0  0
    1.3856    2.4000    0.0000 O   0  0  0  0  0  0  0  0  0  0  0  0
    3.5713    1.3856    0.0000 H   0  0  0  0  0  0  0  0  0  0  0  0
    1.9713   -1.3856    0.0000 H   0  0  0  0  0  0  0  0  0  0  0  0
  1  2  1  0  0  0  0
  2  3  1  0  0  0  0
  2  4  1  0  0  0  0
  2  5  1  0  0  0  0
  1  6  1  0  0  0  0
  6  7  1  0  0  0  0
  7  8  1  0  0  0  0
  8  9  4  0  0  0  0
  9 10  1  0  0  0  0
  9 11  4  0  0  0  0
 11 12  1  0  0  0  0
 11 13  4  0  0  0  0
 13 14  1  0  0  0  0
 13 15  4  0  0  0  0
 15 16  1  0  0  0  0
 15 17  4  0  0  0  0
 17  8  4  0  0  0  0
 17 18  1  0  0  0  0
  7 19  2  0  0  0  0
  6 20  1  0  0  0  0
  6 21  1  0  0  0  0
M  END
> <CAS>
4079-52-1

> <NAME>
Ethanone, 2-methoxy-1-phenyl-

> <preferred_name>
alpha-Methoxyacetophenone

> <iupac>
2-methoxy-1-phenylethanone

> <SMILES>
COCC(=O)c1ccccc1

> <Canonical_QSARr>
COCC(=O)c1ccccc1

> <InChI_Code_QSARr>
InChI=1S/C9H10O2/c1-11-7-9(10)8-5-3-2-4-6-8/h2-6H,7H2,1H3

> <InChI Key_QSARr>
YRNDGUSDBCARGC-UHFFFAOYSA-N

> <Salt_Solvent>
?

> <WS Temperature>


> <WS Reference>
BEILSTEIN

> <dsstox_substance_id>
DTXSID90193778

> <LogMolar>
-0.7616

$$$$
4126-55-0
  -INDIGO-01081615412D

 27 26  0  0  0  0  0  0  0  0999 V2000
   -2.7714    1.6000    0.0000 O   0  0  0  0  0  0  0  0  0  0  0  0
   -4.1568    0.8000    0.0000 C   0  0  0  0  0  0  0  0  0  0  0  0
   -5.5425   -0.0000    0.0000 C   0  0  0  0  0  0  0  0  0  0  0  0
   -6.9282   -0.8000    0.0000 C   0  0  0  0  0  0  0  0  0  0  0  0
   -6.9282   -2.4000    0.0000 O   0  0  0  0  0  0  0  0  0  0  0  0
   -8.3139   -0.0000    0.0000 O   0  0  0  0  0  0  0  0  0  0  0  0
   -9.6994   -0.8000    0.0000 C   0  0  0  0  0  0  0  0  0  0  0  0
  -11.0851   -1.6000    0.0000 H   0  0  0  0  0  0  0  0  0  0  0  0
  -11.0851   -0.0000    0.0000 H   0  0  0  0  0  0  0  0  0  0  0  0
   -9.6994   -2.4000    0.0000 H   0  0  0  0  0  0  0  0  0  0  0  0
   -6.3426    1.3856    0.0000 H   0  0  0  0  0  0  0  0  0  0  0  0
   -4.7425   -1.3856    0.0000 H   0  0  0  0  0  0  0  0  0  0  0  0
   -4.9569    2.1856    0.0000 H   0  0  0  0  0  0  0  0  0  0  0  0
   -3.3570   -0.5856    0.0000 H   0  0  0  0  0  0  0  0  0  0  0  0
   -1.3857    0.8000    0.0000 C   0  0  0  0  0  0  0  0  0  0  0  0
    0.0000   -0.0000    0.0000 C   0  0  0  0  0  0  0  0  0  0  0  0
    1.3857   -0.8000    0.0000 C   0  0  0  0  0  0  0  0  0  0  0  0
    2.7712   -1.6000    0.0000 C   0  0  0  0  0  0  0  0  0  0  0  0
    4.1569   -2.4000    0.0000 H   0  0  0  0  0  0  0  0  0  0  0  0
    2.7712   -3.2000    0.0000 H   0  0  0  0  0  0  0  0  0  0  0  0
    4.1569   -0.8000    0.0000 H   0  0  0  0  0  0  0  0  0  0  0  0
    0.5857   -2.1857    0.0000 H   0  0  0  0  0  0  0  0  0  0  0  0
    2.1856    0.5856    0.0000 H   0  0  0  0  0  0  0  0  0  0  0  0
    0.8001    1.3856    0.0000 H   0  0  0  0  0  0  0  0  0  0  0  0
   -0.8000   -1.3856    0.0000 H   0  0  0  0  0  0  0  0  0  0  0  0
   -2.1857   -0.5856    0.0000 H   0  0  0  0  0  0  0  0  0  0  0  0
   -0.5856    2.1856    0.0000 H   0  0  0  0  0  0  0  0  0  0  0  0
  1  2  1  0  0  0  0
  2  3  1  0  0  0  0
  3  4  1  0  0  0  0
  4  5  2  0  0  0  0
  4  6  1  0  0  0  0
  6  7  1  0  0  0  0
  7  8  1  0  0  0  0
  7  9  1  0  0  0  0
  7 10  1  0  0  0  0
  3 11  1  0  0  0  0
  3 12  1  0  0  0  0
  2 13  1  0  0  0  0
  2 14  1  0  0  0  0
  1 15  1  0  0  0  0
 15 16  1  0  0  0  0
 16 17  1  0  0  0  0
 17 18  1  0  0  0  0
 18 19  1  0  0  0  0
 18 20  1  0  0  0  0
 18 21  1  0  0  0  0
 17 22  1  0  0  0  0
 17 23  1  0  0  0  0
 16 24  1  0  0  0  0
 16 25  1  0  0  0  0
 15 26  1  0  0  0  0
 15 27  1  0  0  0  0
M  END
> <CAS>
4126-55-0

> <NAME>
Propanoic acid, 3-butoxy-, methyl ester

> <preferred_name>
PUBCHEM_23424099

> <iupac>
C8H16O3

> <SMILES>
COC(=O)CCOCCCC

> <Canonical_QSARr>
COC(=O)CCOCCCC

> <InChI_Code_QSARr>
InChI=1S/C8H16O3/c1-3-4-6-11-7-5-8(9)10-2/h3-7H2,1-2H3

> <InChI Key_QSARr>
VBCSBEIIIFLVQV-UHFFFAOYSA-N

> <Salt_Solvent>
?

> <WS Temperature>
25

> <WS Reference>
BEILSTEIN

> <dsstox_substance_id>
DTXSID20633950

> <LogMolar>
-1.2909

$$$$
4195-88-4
  -INDIGO-01081615412D

 27 26  0  0  0  0  0  0  0  0999 V2000
   -3.1999   -0.0000    0.0000 O   0  0  0  0  0  0  0  0  0  0  0  0
   -3.9999   -1.3857    0.0000 C   0  0  0  0  0  0  0  0  0  0  0  0
   -5.6001   -1.3857    0.0000 C   0  0  0  0  0  0  0  0  0  0  0  0
   -7.1999   -1.3857    0.0000 C   0  0  0  0  0  0  0  0  0  0  0  0
   -8.8001   -1.3857    0.0000 O   0  0  0  0  0  0  0  0  0  0  0  0
   -9.6001   -2.7713    0.0000 C   0  0  0  0  0  0  0  0  0  0  0  0
  -11.2000   -2.7713    0.0000 H   0  0  0  0  0  0  0  0  0  0  0  0
  -10.3999   -4.1569    0.0000 H   0  0  0  0  0  0  0  0  0  0  0  0
   -8.8001   -4.1569    0.0000 H   0  0  0  0  0  0  0  0  0  0  0  0
   -7.1999   -2.9856    0.0000 H   0  0  0  0  0  0  0  0  0  0  0  0
   -7.1999    0.2143    0.0000 H   0  0  0  0  0  0  0  0  0  0  0  0
   -5.6001   -2.9856    0.0000 H   0  0  0  0  0  0  0  0  0  0  0  0
   -5.6001    0.2143    0.0000 H   0  0  0  0  0  0  0  0  0  0  0  0
   -3.1999   -2.7713    0.0000 O   0  0  0  0  0  0  0  0  0  0  0  0
   -1.6000   -0.0000    0.0000 C   0  0  0  0  0  0  0  0  0  0  0  0
    0.0001   -0.0000    0.0000 C   0  0  0  0  0  0  0  0  0  0  0  0
    1.6000   -0.0000    0.0000 C   0  0  0  0  0  0  0  0  0  0  0  0
    3.2001   -0.0000    0.0000 C   0  0  0  0  0  0  0  0  0  0  0  0
    4.8000   -0.0000    0.0000 H   0  0  0  0  0  0  0  0  0  0  0  0
    3.9999   -1.3857    0.0000 H   0  0  0  0  0  0  0  0  0  0  0  0
    3.9999    1.3857    0.0000 H   0  0  0  0  0  0  0  0  0  0  0  0
    1.6000   -1.6000    0.0000 H   0  0  0  0  0  0  0  0  0  0  0  0
    1.6000    1.6000    0.0000 H   0  0  0  0  0  0  0  0  0  0  0  0
    0.0001    1.6000    0.0000 H   0  0  0  0  0  0  0  0  0  0  0  0
    0.0001   -1.6000    0.0000 H   0  0  0  0  0  0  0  0  0  0  0  0
   -1.6000   -1.6000    0.0000 H   0  0  0  0  0  0  0  0  0  0  0  0
   -1.6000    1.6000    0.0000 H   0  0  0  0  0  0  0  0  0  0  0  0
  1  2  1  0  0  0  0
  2  3  1  0  0  0  0
  3  4  1  0  0  0  0
  4  5  1  0  0  0  0
  5  6  1  0  0  0  0
  6  7  1  0  0  0  0
  6  8  1  0  0  0  0
  6  9  1  0  0  0  0
  4 10  1  0  0  0  0
  4 11  1  0  0  0  0
  3 12  1  0  0  0  0
  3 13  1  0  0  0  0
  2 14  2  0  0  0  0
  1 15  1  0  0  0  0
 15 16  1  0  0  0  0
 16 17  1  0  0  0  0
 17 18  1  0  0  0  0
 18 19  1  0  0  0  0
 18 20  1  0  0  0  0
 18 21  1  0  0  0  0
 17 22  1  0  0  0  0
 17 23  1  0  0  0  0
 16 24  1  0  0  0  0
 16 25  1  0  0  0  0
 15 26  1  0  0  0  0
 15 27  1  0  0  0  0
M  END
> <CAS>
4195-88-4

> <NAME>
Propanoic acid, 3-methoxy-, butyl ester

> <preferred_name>
Butyl 3-methoxypropionate

> <iupac>
butyl 3-methoxypropanoate

> <SMILES>
COCCC(=O)OCCCC

> <Canonical_QSARr>
COCCC(=O)OCCCC

> <InChI_Code_QSARr>
InChI=1S/C8H16O3/c1-3-4-6-11-8(9)5-7-10-2/h3-7H2,1-2H3

> <InChI Key_QSARr>
RRIRSNXZGJWTQM-UHFFFAOYSA-N

> <Salt_Solvent>
?

> <WS Temperature>


> <WS Reference>
BEILSTEIN

> <dsstox_substance_id>
DTXSID30194709

> <LogMolar>
-1.2135

$$$$
4315-09-7
  -INDIGO-01081615412D

 20 20  0  0  0  0  0  0  0  0999 V2000
    1.3857    2.4000    0.0000 O   0  0  0  0  0  0  0  0  0  0  0  0
    1.3857    0.8000    0.0000 C   0  0  0  0  0  0  0  0  0  0  0  0
    0.0000   -0.0000    0.0000 C   0  0  0  0  0  0  0  0  0  0  0  0
   -1.3856    0.8000    0.0000 C   0  0  0  0  0  0  0  0  0  0  0  0
   -1.3856    2.4000    0.0000 H   0  0  0  0  0  0  0  0  0  0  0  0
   -2.7713   -0.0000    0.0000 C   0  0  0  0  0  0  0  0  0  0  0  0
   -4.1570    0.8000    0.0000 C   0  0  0  0  0  0  0  0  0  0  0  0
   -4.1570    2.4000    0.0000 O   0  0  0  0  0  0  0  0  0  0  0  0
   -5.5426   -0.0000    0.0000 O   0  0  0  0  0  0  0  0  0  0  0  0
   -6.9282    0.8000    0.0000 H   0  0  0  0  0  0  0  0  0  0  0  0
   -2.7713   -1.6000    0.0000 C   0  0  0  0  0  0  0  0  0  0  0  0
   -4.1570   -2.4000    0.0000 H   0  0  0  0  0  0  0  0  0  0  0  0
   -1.3856   -2.4000    0.0000 C   0  0  0  0  0  0  0  0  0  0  0  0
   -1.3856   -4.0000    0.0000 H   0  0  0  0  0  0  0  0  0  0  0  0
    0.0000   -1.6000    0.0000 C   0  0  0  0  0  0  0  0  0  0  0  0
    1.3857   -2.4000    0.0000 N   0  0  0  0  0  0  0  0  0  0  0  0
    1.3857   -4.0000    0.0000 O   0  0  0  0  0  0  0  0  0  0  0  0
    2.7713   -1.6000    0.0000 O   0  0  0  0  0  0  0  0  0  0  0  0
    2.7713   -0.0000    0.0000 O   0  0  0  0  0  0  0  0  0  0  0  0
    2.7713    3.2000    0.0000 H   0  0  0  0  0  0  0  0  0  0  0  0
  1  2  1  0  0  0  0
  2  3  1  0  0  0  0
  3  4  4  0  0  0  0
  4  5  1  0  0  0  0
  4  6  4  0  0  0  0
  6  7  1  0  0  0  0
  7  8  2  0  0  0  0
  7  9  1  0  0  0  0
  9 10  1  0  0  0  0
  6 11  4  0  0  0  0
 11 12  1  0  0  0  0
 11 13  4  0  0  0  0
 13 14  1  0  0  0  0
 13 15  4  0  0  0  0
 15  3  4  0  0  0  0
 15 16  1  0  0  0  0
 16 17  2  0  0  0  0
 16 18  1  0  0  0  0
  2 19  2  0  0  0  0
  1 20  1  0  0  0  0
M  CHG  2  16   1  18  -1
M  END
> <CAS>
4315-09-7

> <NAME>
1,3-Benzenedicarboxylic acid, 4-nitro-

> <preferred_name>
4-Nitroisophthalic acid

> <iupac>
C8H5NO6

> <SMILES>
[O-][N+](=O)c1ccc(cc1C(O)=O)C(O)=O

> <Canonical_QSARr>
[O-][N+](=O)c1ccc(cc1C(O)=O)C(O)=O

> <InChI_Code_QSARr>
InChI=1S/C8H5NO6/c10-7(11)4-1-2-6(9(14)15)5(3-4)8(12)13/h1-3H,(H,10,11)(H,12,13)

> <InChI Key_QSARr>
OCJFXVHDIVAONP-UHFFFAOYSA-N

> <Salt_Solvent>
?

> <WS Temperature>
25

> <WS Reference>
BEILSTEIN

> <dsstox_substance_id>
DTXSID20388913

> <LogMolar>
-1.3391

$$$$
4378-43-2
  -INDIGO-01081615412D

 19 18  0  0  0  0  0  0  0  0999 V2000
    3.2000    0.0000    0.0000 P   0  0  0  0  0  0  0  0  0  0  0  0
    1.6001    0.0000    0.0000 C   0  0  0  0  0  0  0  0  0  0  0  0
    0.0001    0.0000    0.0000 C   0  0  0  0  0  0  0  0  0  0  0  0
   -1.6001    0.0000    0.0000 C   0  0  0  0  0  0  0  0  0  0  0  0
   -3.2000    0.0000    0.0000 C   0  0  0  0  0  0  0  0  0  0  0  0
   -4.0000   -1.3856    0.0000 O   0  0  0  0  0  0  0  0  0  0  0  0
   -4.0000    1.3856    0.0000 O   0  0  0  0  0  0  0  0  0  0  0  0
   -5.6000    1.3856    0.0000 H   0  0  0  0  0  0  0  0  0  0  0  0
   -1.6001   -1.6000    0.0000 H   0  0  0  0  0  0  0  0  0  0  0  0
   -1.6001    1.6000    0.0000 H   0  0  0  0  0  0  0  0  0  0  0  0
    0.0001    1.6000    0.0000 H   0  0  0  0  0  0  0  0  0  0  0  0
    0.0001   -1.6000    0.0000 H   0  0  0  0  0  0  0  0  0  0  0  0
    1.6001   -1.6000    0.0000 H   0  0  0  0  0  0  0  0  0  0  0  0
    1.6001    1.6000    0.0000 H   0  0  0  0  0  0  0  0  0  0  0  0
    3.2000    1.6000    0.0000 O   0  0  0  0  0  0  0  0  0  0  0  0
    4.8000    0.0000    0.0000 O   0  0  0  0  0  0  0  0  0  0  0  0
    5.6000    1.3856    0.0000 H   0  0  0  0  0  0  0  0  0  0  0  0
    3.2000   -1.6000    0.0000 O   0  0  0  0  0  0  0  0  0  0  0  0
    4.5857   -2.4000    0.0000 H   0  0  0  0  0  0  0  0  0  0  0  0
  1  2  1  0  0  0  0
  2  3  1  0  0  0  0
  3  4  1  0  0  0  0
  4  5  1  0  0  0  0
  5  6  2  0  0  0  0
  5  7  1  0  0  0  0
  7  8  1  0  0  0  0
  4  9  1  0  0  0  0
  4 10  1  0  0  0  0
  3 11  1  0  0  0  0
  3 12  1  0  0  0  0
  2 13  1  0  0  0  0
  2 14  1  0  0  0  0
  1 15  2  0  0  0  0
  1 16  1  0  0  0  0
 16 17  1  0  0  0  0
  1 18  1  0  0  0  0
 18 19  1  0  0  0  0
M  END
> <CAS>
4378-43-2

> <NAME>
Butanoic acid, 4-phosphono-

> <preferred_name>
4-phosphonobutanoic Acid

> <iupac>
C4H9O5P

> <SMILES>
OC(=O)CCCP(O)(O)=O

> <Canonical_QSARr>
OC(=O)CCCP(O)(O)=O

> <InChI_Code_QSARr>
InChI=1S/C4H9O5P/c5-4(6)2-1-3-10(7,8)9/h1-3H2,(H,5,6)(H2,7,8,9)

> <InChI Key_QSARr>
UYRFPODVSLYSCO-UHFFFAOYSA-N

> <Salt_Solvent>
?

> <WS Temperature>
20

> <WS Reference>
BEILSTEIN

> <dsstox_substance_id>
DTXSID70378723

> <LogMolar>
0.5012

$$$$
4394-00-7
  -INDIGO-01081615412D

 29 30  0  0  0  0  0  0  0  0999 V2000
    4.6704   -1.8702    0.0000 C   0  0  0  0  0  0  0  0  0  0  0  0
    3.1670   -1.3229    0.0000 N   0  0  0  1  0  0  0  0  0  0  0  0
    2.8891    0.2528    0.0000 C   0  0  0  0  0  0  0  0  0  0  0  0
    1.3856    0.8001    0.0000 N   0  0  0  0  0  0  0  0  0  0  0  0
    0.0001    0.0000    0.0000 C   0  0  0  0  0  0  0  0  0  0  0  0
   -1.3857    0.8001    0.0000 C   0  0  0  0  0  0  0  0  0  0  0  0
   -1.3857    2.4000    0.0000 H   0  0  0  0  0  0  0  0  0  0  0  0
   -2.7712    0.0000    0.0000 C   0  0  0  0  0  0  0  0  0  0  0  0
   -4.1570    0.8001    0.0000 C   0  0  0  0  0  0  0  0  0  0  0  0
   -5.5426    1.6000    0.0000 F   0  0  0  0  0  0  0  0  0  0  0  0
   -5.5426    0.0000    0.0000 F   0  0  0  0  0  0  0  0  0  0  0  0
   -4.1570    2.4000    0.0000 F   0  0  0  0  0  0  0  0  0  0  0  0
   -2.7712   -1.6000    0.0000 C   0  0  0  0  0  0  0  0  0  0  0  0
   -4.1570   -2.3999    0.0000 H   0  0  0  0  0  0  0  0  0  0  0  0
   -1.3857   -2.3999    0.0000 C   0  0  0  0  0  0  0  0  0  0  0  0
   -1.3857   -4.0000    0.0000 H   0  0  0  0  0  0  0  0  0  0  0  0
    0.0001   -1.6000    0.0000 C   0  0  0  0  0  0  0  0  0  0  0  0
    1.3856   -2.3999    0.0000 H   0  0  0  0  0  0  0  0  0  0  0  0
    1.1078    2.3757    0.0000 H   0  0  0  0  0  0  0  0  0  0  0  0
    4.1149    1.2812    0.0000 C   0  0  0  0  0  0  0  0  0  0  0  0
    3.8370    2.8570    0.0000 C   0  0  0  0  0  0  0  0  0  0  0  0
    5.0626    3.8854    0.0000 O   0  0  0  0  0  0  0  0  0  0  0  0
    6.5661    3.3382    0.0000 H   0  0  0  0  0  0  0  0  0  0  0  0
    2.3336    3.4042    0.0000 O   0  0  0  0  0  0  0  0  0  0  0  0
    5.6184    0.7340    0.0000 C   0  0  0  0  0  0  0  0  0  0  0  0
    6.8439    1.7624    0.0000 H   0  0  0  0  0  0  0  0  0  0  0  0
    5.8962   -0.8416    0.0000 C   0  0  0  0  0  0  0  0  0  0  0  0
    7.3997   -1.3890    0.0000 H   0  0  0  0  0  0  0  0  0  0  0  0
    4.9483   -3.4458    0.0000 H   0  0  0  0  0  0  0  0  0  0  0  0
  1  2  4  0  0  0  0
  2  3  4  0  0  0  0
  3  4  1  0  0  0  0
  4  5  1  0  0  0  0
  5  6  4  0  0  0  0
  6  7  1  0  0  0  0
  6  8  4  0  0  0  0
  8  9  1  0  0  0  0
  9 10  1  0  0  0  0
  9 11  1  0  0  0  0
  9 12  1  0  0  0  0
  8 13  4  0  0  0  0
 13 14  1  0  0  0  0
 13 15  4  0  0  0  0
 15 16  1  0  0  0  0
 15 17  4  0  0  0  0
 17  5  4  0  0  0  0
 17 18  1  0  0  0  0
  4 19  1  0  0  0  0
  3 20  4  0  0  0  0
 20 21  1  0  0  0  0
 21 22  1  0  0  0  0
 22 23  1  0  0  0  0
 21 24  2  0  0  0  0
 20 25  4  0  0  0  0
 25 26  1  0  0  0  0
 25 27  4  0  0  0  0
 27  1  4  0  0  0  0
 27 28  1  0  0  0  0
  1 29  1  0  0  0  0
M  END
> <CAS>
4394-00-7

> <NAME>
Niflumic acid

> <preferred_name>
Niflumic acid

> <iupac>
2-{[3-(trifluoromethyl)phenyl]amino}pyridine-3-carboxylic acid

> <SMILES>
OC(=O)c1ccc[n]c1Nc1cc(ccc1)C(F)(F)F

> <Canonical_QSARr>
OC(=O)c1ccc[n]c1Nc1cc(ccc1)C(F)(F)F

> <InChI_Code_QSARr>
InChI=1S/C13H9F3N2O2/c14-13(15,16)8-3-1-4-9(7-8)18-11-10(12(19)20)5-2-6-17-11/h1-7H,(H,17,18)(H,19,20)

> <InChI Key_QSARr>
JZFPYUNJRRFVQU-UHFFFAOYSA-N

> <Salt_Solvent>
?

> <WS Temperature>
25

> <WS Reference>
YALKOWSKY,SH & DANNENFELSER,RM (1992)

> <dsstox_substance_id>
DTXSID1023368

> <LogMolar>
-4.1718

$$$$
4462-43-5
  -INDIGO-01081615412D

 33 34  0  0  0  0  0  0  0  0999 V2000
    1.3857    0.8000    0.0000 S   0  0  0  0  0  0  0  0  0  0  0  0
    0.0000   -0.0000    0.0000 C   0  0  0  0  0  0  0  0  0  0  0  0
   -1.3857    0.8000    0.0000 C   0  0  0  0  0  0  0  0  0  0  0  0
   -1.3857    2.4000    0.0000 H   0  0  0  0  0  0  0  0  0  0  0  0
   -2.7714   -0.0000    0.0000 C   0  0  0  0  0  0  0  0  0  0  0  0
   -4.1569    0.8000    0.0000 H   0  0  0  0  0  0  0  0  0  0  0  0
   -2.7714   -1.6000    0.0000 C   0  0  0  0  0  0  0  0  0  0  0  0
   -4.1569   -2.4000    0.0000 N   0  0  0  0  0  0  0  0  0  0  0  0
   -5.5426   -1.6000    0.0000 H   0  0  0  0  0  0  0  0  0  0  0  0
   -4.1569   -4.0000    0.0000 H   0  0  0  0  0  0  0  0  0  0  0  0
   -1.3857   -2.4000    0.0000 C   0  0  0  0  0  0  0  0  0  0  0  0
   -1.3857   -4.0000    0.0000 H   0  0  0  0  0  0  0  0  0  0  0  0
    0.0000   -1.6000    0.0000 C   0  0  0  0  0  0  0  0  0  0  0  0
    1.3857   -2.4000    0.0000 H   0  0  0  0  0  0  0  0  0  0  0  0
    2.7712    1.6000    0.0000 N   0  0  0  0  0  0  0  0  0  0  0  0
    4.1569    0.8000    0.0000 C   0  0  0  0  0  0  0  0  0  0  0  0
    4.1569   -0.8000    0.0000 N   0  0  0  1  0  0  0  0  0  0  0  0
    5.5426   -1.6000    0.0000 C   0  0  0  0  0  0  0  0  0  0  0  0
    5.5426   -3.2000    0.0000 H   0  0  0  0  0  0  0  0  0  0  0  0
    6.9283   -0.8000    0.0000 C   0  0  0  0  0  0  0  0  0  0  0  0
    8.3138   -1.6000    0.0000 C   0  0  0  0  0  0  0  0  0  0  0  0
    9.6995   -2.4000    0.0000 H   0  0  0  0  0  0  0  0  0  0  0  0
    9.6995   -0.8000    0.0000 H   0  0  0  0  0  0  0  0  0  0  0  0
    8.3138   -3.2000    0.0000 H   0  0  0  0  0  0  0  0  0  0  0  0
    6.9283    0.8000    0.0000 C   0  0  0  0  0  0  0  0  0  0  0  0
    8.3138    1.6000    0.0000 C   0  0  0  0  0  0  0  0  0  0  0  0
    9.6995    2.4000    0.0000 H   0  0  0  0  0  0  0  0  0  0  0  0
    8.3138    3.2000    0.0000 H   0  0  0  0  0  0  0  0  0  0  0  0
    9.6995    0.8000    0.0000 H   0  0  0  0  0  0  0  0  0  0  0  0
    5.5426    1.6000    0.0000 N   0  0  0  1  0  0  0  0  0  0  0  0
    2.7712    3.2000    0.0000 H   0  0  0  0  0  0  0  0  0  0  0  0
    2.1856   -0.5856    0.0000 O   0  0  0  0  0  0  0  0  0  0  0  0
    0.5857    2.1856    0.0000 O   0  0  0  0  0  0  0  0  0  0  0  0
  1  2  1  0  0  0  0
  2  3  4  0  0  0  0
  3  4  1  0  0  0  0
  3  5  4  0  0  0  0
  5  6  1  0  0  0  0
  5  7  4  0  0  0  0
  7  8  1  0  0  0  0
  8  9  1  0  0  0  0
  8 10  1  0  0  0  0
  7 11  4  0  0  0  0
 11 12  1  0  0  0  0
 11 13  4  0  0  0  0
 13  2  4  0  0  0  0
 13 14  1  0  0  0  0
  1 15  1  0  0  0  0
 15 16  1  0  0  0  0
 16 17  4  0  0  0  0
 17 18  4  0  0  0  0
 18 19  1  0  0  0  0
 18 20  4  0  0  0  0
 20 21  1  0  0  0  0
 21 22  1  0  0  0  0
 21 23  1  0  0  0  0
 21 24  1  0  0  0  0
 20 25  4  0  0  0  0
 25 26  1  0  0  0  0
 26 27  1  0  0  0  0
 26 28  1  0  0  0  0
 26 29  1  0  0  0  0
 25 30  4  0  0  0  0
 30 16  4  0  0  0  0
 15 31  1  0  0  0  0
  1 32  2  0  0  0  0
  1 33  2  0  0  0  0
M  END
> <CAS>
4462-43-5

> <NAME>
Benzenesulfonamide, 4-amino-N-(4,5-dimethyl-2-py

> <preferred_name>
4-amino-n-(4,5-dimethylpyrimidin-2-yl)benzenesulfonamide

> <iupac>
C12H14N4O2S

> <SMILES>
Cc1c[n]c(NS(=O)(=O)c2ccc(N)cc2)[n]c1C

> <Canonical_QSARr>
Cc1c[n]c(NS(=O)(=O)c2ccc(N)cc2)[n]c1C

> <InChI_Code_QSARr>
InChI=1S/C12H14N4O2S/c1-8-7-14-12(15-9(8)2)16-19(17,18)11-5-3-10(13)4-6-11/h3-7H,13H2,1-2H3,(H,14,15,16)

> <InChI Key_QSARr>
IHEAINLLXOBUEW-UHFFFAOYSA-N

> <Salt_Solvent>
?

> <WS Temperature>
29

> <WS Reference>
BEILSTEIN

> <dsstox_substance_id>
DTXSID30282675

> <LogMolar>
-3.1435

$$$$
4562-27-0
  -INDIGO-01081615412D

 11 11  0  0  0  0  0  0  0  0999 V2000
    1.3856    2.4000    0.0000 C   0  0  0  0  0  0  0  0  0  0  0  0
    2.7713    3.2000    0.0000 O   0  0  0  0  0  0  0  0  0  0  0  0
   -0.0000    3.2000    0.0000 N   0  0  0  0  0  0  0  0  0  0  0  0
   -1.3856    2.4000    0.0000 C   0  0  0  0  0  0  0  0  0  0  0  0
   -2.7713    3.2000    0.0000 H   0  0  0  0  0  0  0  0  0  0  0  0
   -1.3856    0.8000    0.0000 N   0  0  0  0  0  0  0  0  0  0  0  0
   -2.7713    0.0000    0.0000 H   0  0  0  0  0  0  0  0  0  0  0  0
   -0.0000    0.0000    0.0000 C   0  0  0  0  0  0  0  0  0  0  0  0
   -0.0000   -1.6000    0.0000 H   0  0  0  0  0  0  0  0  0  0  0  0
    1.3856    0.8000    0.0000 C   0  0  0  0  0  0  0  0  0  0  0  0
    2.7713    0.0000    0.0000 H   0  0  0  0  0  0  0  0  0  0  0  0
  1  2  2  0  0  0  0
  1  3  1  0  0  0  0
  3  4  2  0  0  0  0
  4  5  1  0  0  0  0
  4  6  1  0  0  0  0
  6  7  1  0  0  0  0
  6  8  1  0  0  0  0
  8  9  1  0  0  0  0
  8 10  2  0  0  0  0
 10  1  1  0  0  0  0
 10 11  1  0  0  0  0
M  END
> <CAS>
4562-27-0

> <NAME>
4-PYRIMIDONE

> <preferred_name>
4(1H)-Pyrimidinone

> <iupac>


> <SMILES>
O=C1C=CNC=N1

> <Canonical_QSARr>
O=C1C=CNC=N1

> <InChI_Code_QSARr>
InChI=1S/C4H4N2O/c7-4-1-2-5-3-6-4/h1-3H,(H,5,6,7)

> <InChI Key_QSARr>
DNCYBUMDUBHIJZ-UHFFFAOYSA-N

> <Salt_Solvent>
?

> <WS Temperature>
20

> <WS Reference>
BEILSTEIN

> <dsstox_substance_id>
DTXSID5063524

> <LogMolar>
0.586

$$$$
4596-56-9
  -INDIGO-01081615412D

 19 18  0  0  0  0  0  0  0  0999 V2000
    4.1569   -0.8000    0.0000 S   0  0  0  0  0  0  0  0  0  0  0  0
    2.7712   -0.0000    0.0000 C   0  0  0  0  0  0  0  0  0  0  0  0
    1.3857   -0.8000    0.0000 N   0  0  0  0  0  0  0  0  0  0  0  0
    0.0000   -0.0000    0.0000 C   0  0  0  0  0  0  0  0  0  0  0  0
   -1.3857    0.8000    0.0000 C   0  0  0  0  0  0  0  0  0  0  0  0
   -1.3857    2.4000    0.0000 O   0  0  0  0  0  0  0  0  0  0  0  0
   -2.7712   -0.0000    0.0000 O   0  0  0  0  0  0  0  0  0  0  0  0
   -4.1569    0.8000    0.0000 H   0  0  0  0  0  0  0  0  0  0  0  0
    0.8000    1.3857    0.0000 H   0  0  0  0  0  0  0  0  0  0  0  0
   -0.8000   -1.3857    0.0000 H   0  0  0  0  0  0  0  0  0  0  0  0
    1.3857   -2.4000    0.0000 H   0  0  0  0  0  0  0  0  0  0  0  0
    2.7712    1.6000    0.0000 S   0  0  0  0  0  0  0  0  0  0  0  0
    5.5426    0.0000    0.0000 C   0  0  0  0  0  0  0  0  0  0  0  0
    6.9281    0.8000    0.0000 C   0  0  0  0  0  0  0  0  0  0  0  0
    8.3138    1.6000    0.0000 H   0  0  0  0  0  0  0  0  0  0  0  0
    8.3138    0.0000    0.0000 H   0  0  0  0  0  0  0  0  0  0  0  0
    6.9281    2.4000    0.0000 H   0  0  0  0  0  0  0  0  0  0  0  0
    6.3426   -1.3857    0.0000 H   0  0  0  0  0  0  0  0  0  0  0  0
    4.7426    1.3857    0.0000 H   0  0  0  0  0  0  0  0  0  0  0  0
  1  2  1  0  0  0  0
  2  3  1  0  0  0  0
  3  4  1  0  0  0  0
  4  5  1  0  0  0  0
  5  6  2  0  0  0  0
  5  7  1  0  0  0  0
  7  8  1  0  0  0  0
  4  9  1  0  0  0  0
  4 10  1  0  0  0  0
  3 11  1  0  0  0  0
  2 12  2  0  0  0  0
  1 13  1  0  0  0  0
 13 14  1  0  0  0  0
 14 15  1  0  0  0  0
 14 16  1  0  0  0  0
 14 17  1  0  0  0  0
 13 18  1  0  0  0  0
 13 19  1  0  0  0  0
M  END
> <CAS>
4596-56-9

> <NAME>
Glycine, N-[(ethylthio)thioxomethyl]-

> <preferred_name>
Glycine, N-[(ethylthio)thioxomethyl]-

> <iupac>
C5H9NO2S2

> <SMILES>
CCSC(=S)NCC(O)=O

> <Canonical_QSARr>
CCSC(=S)NCC(O)=O

> <InChI_Code_QSARr>
InChI=1S/C5H9NO2S2/c1-2-10-5(9)6-3-4(7)8/h2-3H2,1H3,(H,6,9)(H,7,8)

> <InChI Key_QSARr>
OEVJJBPEVKMYFQ-UHFFFAOYSA-N

> <Salt_Solvent>
?

> <WS Temperature>
25

> <WS Reference>
BEILSTEIN

> <dsstox_substance_id>
DTXSID00400783

> <LogMolar>
-1.0882

$$$$
4658-28-0
  -INDIGO-01081615412D

 27 27  0  0  0  0  0  0  0  0999 V2000
   -8.8000    1.3856    0.0000 N   0  0  0  0  0  0  0  0  0  0  0  0
   -7.1999    1.3856    0.0000 N   0  0  0  0  0  0  0  0  0  0  0  0
   -5.6001    1.3856    0.0000 N   0  0  0  0  0  0  0  0  0  0  0  0
   -4.8001    0.0000    0.0000 C   0  0  0  0  0  0  0  0  0  0  0  0
   -5.6001   -1.3857    0.0000 N   0  0  0  1  0  0  0  0  0  0  0  0
   -4.8001   -2.7713    0.0000 C   0  0  0  0  0  0  0  0  0  0  0  0
   -5.6001   -4.1570    0.0000 S   0  0  0  0  0  0  0  0  0  0  0  0
   -7.1999   -4.1569    0.0000 C   0  0  0  0  0  0  0  0  0  0  0  0
   -8.8000   -4.1569    0.0000 H   0  0  0  0  0  0  0  0  0  0  0  0
   -8.0000   -5.5426    0.0000 H   0  0  0  0  0  0  0  0  0  0  0  0
   -8.0000   -2.7713    0.0000 H   0  0  0  0  0  0  0  0  0  0  0  0
   -3.2000   -2.7713    0.0000 N   0  0  0  1  0  0  0  0  0  0  0  0
   -2.4000   -1.3857    0.0000 C   0  0  0  0  0  0  0  0  0  0  0  0
   -0.7999   -1.3857    0.0000 N   0  0  0  0  0  0  0  0  0  0  0  0
    0.0001    0.0000    0.0000 C   0  0  0  0  0  0  0  0  0  0  0  0
    0.7999    1.3856    0.0000 C   0  0  0  0  0  0  0  0  0  0  0  0
    1.5999    2.7713    0.0000 H   0  0  0  0  0  0  0  0  0  0  0  0
    2.4000    1.3857    0.0000 H   0  0  0  0  0  0  0  0  0  0  0  0
    0.0001    2.7713    0.0000 H   0  0  0  0  0  0  0  0  0  0  0  0
    1.3857   -0.8000    0.0000 C   0  0  0  0  0  0  0  0  0  0  0  0
    2.7713   -1.6000    0.0000 H   0  0  0  0  0  0  0  0  0  0  0  0
    2.7713    0.0000    0.0000 H   0  0  0  0  0  0  0  0  0  0  0  0
    1.3857   -2.4000    0.0000 H   0  0  0  0  0  0  0  0  0  0  0  0
   -1.3857    0.8000    0.0000 H   0  0  0  0  0  0  0  0  0  0  0  0
    0.0001   -2.7713    0.0000 H   0  0  0  0  0  0  0  0  0  0  0  0
   -3.2000    0.0000    0.0000 N   0  0  0  1  0  0  0  0  0  0  0  0
   -9.6000    2.7713    0.0000 H   0  0  0  0  0  0  0  0  0  0  0  0
  1  2  2  0  0  0  0
  2  3  2  0  0  0  0
  3  4  1  0  0  0  0
  4  5  4  0  0  0  0
  5  6  4  0  0  0  0
  6  7  1  0  0  0  0
  7  8  1  0  0  0  0
  8  9  1  0  0  0  0
  8 10  1  0  0  0  0
  8 11  1  0  0  0  0
  6 12  4  0  0  0  0
 12 13  4  0  0  0  0
 13 14  1  0  0  0  0
 14 15  1  0  0  0  0
 15 16  1  0  0  0  0
 16 17  1  0  0  0  0
 16 18  1  0  0  0  0
 16 19  1  0  0  0  0
 15 20  1  0  0  0  0
 20 21  1  0  0  0  0
 20 22  1  0  0  0  0
 20 23  1  0  0  0  0
 15 24  1  0  0  0  0
 14 25  1  0  0  0  0
 13 26  4  0  0  0  0
 26  4  4  0  0  0  0
  1 27  1  0  0  0  0
M  CHG  1   2   1
M  END
> <CAS>
4658-28-0

> <NAME>
AZIPROTRYNE

> <preferred_name>
Aziprotryne

> <iupac>
4-azido-6-(methylsulfanyl)-N-(propan-2-yl)-1,3,5-triazin-2-amine

> <SMILES>
CSc1[n]c(N=[N+]=[N-])[n]c(NC(C)C)[n]1

> <Canonical_QSARr>
CSc1[n]c(N=[N+]=N)[n]c(NC(C)C)[n]1

> <InChI_Code_QSARr>
InChI=1S/C7H12N7S/c1-4(2)9-5-10-6(13-14-8)12-7(11-5)15-3/h4,8H,1-3H3,(H,9,10,11,12)/q+1

> <InChI Key_QSARr>
FXVNVCISKKOMKV-UHFFFAOYSA-N

> <Salt_Solvent>
?

> <WS Temperature>
20

> <WS Reference>
YALKOWSKY,SH & DANNENFELSER,RM (1992)

> <dsstox_substance_id>
DTXSID3041615

> <LogMolar>
-3.6124

$$$$
4775-93-3
  -INDIGO-01081615412D

 22 21  0  0  0  0  0  0  0  0999 V2000
    0.7999    1.3857    0.0000 C   0  0  0  0  0  0  0  0  0  0  0  0
   -0.0000   -0.0000    0.0000 C   0  0  0  0  0  0  0  0  0  0  0  0
    1.3857   -0.8000    0.0000 S   0  0  0  0  0  0  0  0  0  0  0  0
    2.7713   -0.0000    0.0000 S   0  0  0  0  0  0  0  0  0  0  0  0
    4.1569   -0.8000    0.0000 C   0  0  0  0  0  0  0  0  0  0  0  0
    5.5425   -1.6000    0.0000 C   0  0  0  0  0  0  0  0  0  0  0  0
    6.9282   -2.4000    0.0000 H   0  0  0  0  0  0  0  0  0  0  0  0
    6.9282   -0.8000    0.0000 H   0  0  0  0  0  0  0  0  0  0  0  0
    5.5425   -3.2000    0.0000 H   0  0  0  0  0  0  0  0  0  0  0  0
    4.9569    0.5856    0.0000 C   0  0  0  0  0  0  0  0  0  0  0  0
    4.1569    1.9712    0.0000 O   0  0  0  0  0  0  0  0  0  0  0  0
    4.9569    3.3570    0.0000 H   0  0  0  0  0  0  0  0  0  0  0  0
    6.5570    0.5856    0.0000 O   0  0  0  0  0  0  0  0  0  0  0  0
    3.3569   -2.1856    0.0000 H   0  0  0  0  0  0  0  0  0  0  0  0
   -0.8000   -1.3857    0.0000 C   0  0  0  0  0  0  0  0  0  0  0  0
   -1.6001   -2.7713    0.0000 H   0  0  0  0  0  0  0  0  0  0  0  0
   -2.4000   -1.3857    0.0000 H   0  0  0  0  0  0  0  0  0  0  0  0
   -0.0000   -2.7713    0.0000 H   0  0  0  0  0  0  0  0  0  0  0  0
   -1.3857    0.8000    0.0000 H   0  0  0  0  0  0  0  0  0  0  0  0
   -0.0000    2.7713    0.0000 O   0  0  0  0  0  0  0  0  0  0  0  0
    0.7999    4.1569    0.0000 H   0  0  0  0  0  0  0  0  0  0  0  0
    2.4000    1.3857    0.0000 O   0  0  0  0  0  0  0  0  0  0  0  0
  1  2  1  0  0  0  0
  2  3  1  0  0  0  0
  3  4  1  0  0  0  0
  4  5  1  0  0  0  0
  5  6  1  0  0  0  0
  6  7  1  0  0  0  0
  6  8  1  0  0  0  0
  6  9  1  0  0  0  0
  5 10  1  0  0  0  0
 10 11  1  0  0  0  0
 11 12  1  0  0  0  0
 10 13  2  0  0  0  0
  5 14  1  0  0  0  0
  2 15  1  0  0  0  0
 15 16  1  0  0  0  0
 15 17  1  0  0  0  0
 15 18  1  0  0  0  0
  2 19  1  0  0  0  0
  1 20  1  0  0  0  0
 20 21  1  0  0  0  0
  1 22  2  0  0  0  0
M  END
> <CAS>
4775-93-3

> <NAME>
Propanoic acid, 2,2'-dithiobis-

> <preferred_name>


> <iupac>


> <SMILES>
CC(SSC(C)C(O)=O)C(O)=O

> <Canonical_QSARr>
CC(SSC(C)C(O)=O)C(O)=O

> <InChI_Code_QSARr>
InChI=1S/C6H10O4S2/c1-3(5(7)8)11-12-4(2)6(9)10/h3-4H,1-2H3,(H,7,8)(H,9,10)

> <InChI Key_QSARr>
UTDRPUGFHHVEDG-UHFFFAOYSA-N

> <Salt_Solvent>
?

> <WS Temperature>
25

> <WS Reference>
BEILSTEIN

> <dsstox_substance_id>


> <LogMolar>
-0.9301

$$$$
4798-44-1
  -INDIGO-01081615412D

 19 18  0  0  0  0  0  0  0  0999 V2000
    4.0000    1.3856    0.0000 C   0  0  0  0  0  0  0  0  0  0  0  0
    3.2001    0.0000    0.0000 C   0  0  0  0  0  0  0  0  0  0  0  0
    1.6000    0.0000    0.0000 C   0  0  0  0  0  0  0  0  0  0  0  0
    0.0000    0.0000    0.0000 C   0  0  0  0  0  0  0  0  0  0  0  0
   -1.5999    0.0000    0.0000 C   0  0  0  0  0  0  0  0  0  0  0  0
   -3.2000    0.0000    0.0000 C   0  0  0  0  0  0  0  0  0  0  0  0
   -4.8000    0.0000    0.0000 H   0  0  0  0  0  0  0  0  0  0  0  0
   -4.0000    1.3856    0.0000 H   0  0  0  0  0  0  0  0  0  0  0  0
   -4.0000   -1.3856    0.0000 H   0  0  0  0  0  0  0  0  0  0  0  0
   -1.5999    1.6000    0.0000 H   0  0  0  0  0  0  0  0  0  0  0  0
   -1.5999   -1.6000    0.0000 H   0  0  0  0  0  0  0  0  0  0  0  0
    0.0000    1.6000    0.0000 H   0  0  0  0  0  0  0  0  0  0  0  0
    0.0000   -1.6000    0.0000 H   0  0  0  0  0  0  0  0  0  0  0  0
    1.6000   -1.6000    0.0000 O   0  0  0  0  0  0  0  0  0  0  0  0
    2.9857   -2.4000    0.0000 H   0  0  0  0  0  0  0  0  0  0  0  0
    1.6000    1.6000    0.0000 H   0  0  0  0  0  0  0  0  0  0  0  0
    4.0000   -1.3856    0.0000 H   0  0  0  0  0  0  0  0  0  0  0  0
    5.6000    1.3856    0.0000 H   0  0  0  0  0  0  0  0  0  0  0  0
    3.2001    2.7713    0.0000 H   0  0  0  0  0  0  0  0  0  0  0  0
  1  2  2  0  0  0  0
  2  3  1  0  0  0  0
  3  4  1  0  0  0  0
  4  5  1  0  0  0  0
  5  6  1  0  0  0  0
  6  7  1  0  0  0  0
  6  8  1  0  0  0  0
  6  9  1  0  0  0  0
  5 10  1  0  0  0  0
  5 11  1  0  0  0  0
  4 12  1  0  0  0  0
  4 13  1  0  0  0  0
  3 14  1  0  0  0  0
 14 15  1  0  0  0  0
  3 16  1  0  0  0  0
  2 17  1  0  0  0  0
  1 18  1  0  0  0  0
  1 19  1  0  0  0  0
M  END
> <CAS>
4798-44-1

> <NAME>
1-HEXEN-3-OL

> <preferred_name>
1-Hexen-3-ol

> <iupac>
hex-1-en-3-ol

> <SMILES>
CCCC(O)C=C

> <Canonical_QSARr>
CCCC(O)C=C

> <InChI_Code_QSARr>
InChI=1S/C6H12O/c1-3-5-6(7)4-2/h4,6-7H,2-3,5H2,1H3

> <InChI Key_QSARr>
BVOSSZSHBZQJOI-UHFFFAOYSA-N

> <Salt_Solvent>
?

> <WS Temperature>
25

> <WS Reference>
YALKOWSKY,SH & DANNENFELSER,RM (1992)

> <dsstox_substance_id>
DTXSID1022219

> <LogMolar>
-0.5993

$$$$
4881-17-8
  -INDIGO-01081615412D

 42 44  0  0  0  0  0  0  0  0999 V2000
    0.0001    0.0000    0.0000 P   0  0  0  0  0  0  0  0  0  0  0  0
    1.2257    1.0285    0.0000 N   0  0  0  0  0  0  0  0  0  0  0  0
    1.2257    2.6284    0.0000 C   0  0  0  0  0  0  0  0  0  0  0  0
   -0.3501    2.3506    0.0000 H   0  0  0  0  0  0  0  0  0  0  0  0
    0.6784    4.1320    0.0000 H   0  0  0  0  0  0  0  0  0  0  0  0
    2.6113    3.4285    0.0000 C   0  0  0  0  0  0  0  0  0  0  0  0
    1.5828    4.6541    0.0000 H   0  0  0  0  0  0  0  0  0  0  0  0
    3.6397    4.6541    0.0000 H   0  0  0  0  0  0  0  0  0  0  0  0
    3.9970    2.6284    0.0000 O   0  0  0  0  0  0  0  0  0  0  0  0
    3.9970    1.0285    0.0000 C   0  0  0  0  0  0  0  0  0  0  0  0
    5.5726    1.3064    0.0000 H   0  0  0  0  0  0  0  0  0  0  0  0
    4.5441   -0.4750    0.0000 H   0  0  0  0  0  0  0  0  0  0  0  0
    2.6113    0.2284    0.0000 C   0  0  0  0  0  0  0  0  0  0  0  0
    3.4113   -1.1573    0.0000 H   0  0  0  0  0  0  0  0  0  0  0  0
    1.5828   -0.9972    0.0000 H   0  0  0  0  0  0  0  0  0  0  0  0
   -1.3857   -0.8000    0.0000 N   0  0  0  0  0  0  0  0  0  0  0  0
   -2.7713    0.0000    0.0000 C   0  0  0  0  0  0  0  0  0  0  0  0
   -1.9712    1.3857    0.0000 H   0  0  0  0  0  0  0  0  0  0  0  0
   -3.7997    1.2257    0.0000 H   0  0  0  0  0  0  0  0  0  0  0  0
   -4.1568   -0.8000    0.0000 C   0  0  0  0  0  0  0  0  0  0  0  0
   -4.7041    0.7035    0.0000 H   0  0  0  0  0  0  0  0  0  0  0  0
   -5.7326   -1.0779    0.0000 H   0  0  0  0  0  0  0  0  0  0  0  0
   -4.1568   -2.4000    0.0000 O   0  0  0  0  0  0  0  0  0  0  0  0
   -2.7713   -3.2000    0.0000 C   0  0  0  0  0  0  0  0  0  0  0  0
   -3.7997   -4.4257    0.0000 H   0  0  0  0  0  0  0  0  0  0  0  0
   -1.7428   -4.4257    0.0000 H   0  0  0  0  0  0  0  0  0  0  0  0
   -1.3857   -2.4000    0.0000 C   0  0  0  0  0  0  0  0  0  0  0  0
   -0.8384   -3.9035    0.0000 H   0  0  0  0  0  0  0  0  0  0  0  0
    0.1901   -2.1221    0.0000 H   0  0  0  0  0  0  0  0  0  0  0  0
   -0.8000    1.3857    0.0000 O   0  0  0  0  0  0  0  0  0  0  0  0
    0.7999   -1.3856    0.0000 O   0  0  0  0  0  0  0  0  0  0  0  0
    2.4000   -1.3856    0.0000 C   0  0  0  0  0  0  0  0  0  0  0  0
    3.6256   -0.3572    0.0000 C   0  0  0  0  0  0  0  0  0  0  0  0
    3.0785    1.1463    0.0000 H   0  0  0  0  0  0  0  0  0  0  0  0
    5.1293   -0.9045    0.0000 C   0  0  0  0  0  0  0  0  0  0  0  0
    6.3549    0.1241    0.0000 H   0  0  0  0  0  0  0  0  0  0  0  0
    5.4071   -2.4801    0.0000 C   0  0  0  0  0  0  0  0  0  0  0  0
    6.9105   -3.0274    0.0000 H   0  0  0  0  0  0  0  0  0  0  0  0
    4.1813   -3.5085    0.0000 C   0  0  0  0  0  0  0  0  0  0  0  0
    4.4593   -5.0843    0.0000 H   0  0  0  0  0  0  0  0  0  0  0  0
    2.6778   -2.9614    0.0000 C   0  0  0  0  0  0  0  0  0  0  0  0
    1.4522   -3.9898    0.0000 H   0  0  0  0  0  0  0  0  0  0  0  0
  1  2  1  0  0  0  0
  2  3  1  0  0  0  0
  3  4  1  0  0  0  0
  3  5  1  0  0  0  0
  3  6  1  0  0  0  0
  6  7  1  0  0  0  0
  6  8  1  0  0  0  0
  6  9  1  0  0  0  0
  9 10  1  0  0  0  0
 10 11  1  0  0  0  0
 10 12  1  0  0  0  0
 10 13  1  0  0  0  0
 13  2  1  0  0  0  0
 13 14  1  0  0  0  0
 13 15  1  0  0  0  0
  1 16  1  0  0  0  0
 16 17  1  0  0  0  0
 17 18  1  0  0  0  0
 17 19  1  0  0  0  0
 17 20  1  0  0  0  0
 20 21  1  0  0  0  0
 20 22  1  0  0  0  0
 20 23  1  0  0  0  0
 23 24  1  0  0  0  0
 24 25  1  0  0  0  0
 24 26  1  0  0  0  0
 24 27  1  0  0  0  0
 27 16  1  0  0  0  0
 27 28  1  0  0  0  0
 27 29  1  0  0  0  0
  1 30  2  0  0  0  0
  1 31  1  0  0  0  0
 31 32  1  0  0  0  0
 32 33  4  0  0  0  0
 33 34  1  0  0  0  0
 33 35  4  0  0  0  0
 35 36  1  0  0  0  0
 35 37  4  0  0  0  0
 37 38  1  0  0  0  0
 37 39  4  0  0  0  0
 39 40  1  0  0  0  0
 39 41  4  0  0  0  0
 41 32  4  0  0  0  0
 41 42  1  0  0  0  0
M  END
> <CAS>
4881-17-8

> <NAME>
Phosphinic acid, di-4-morpholinyl-, phenyl ester

> <preferred_name>
Phosphinic acid, dimorpholino-, phenyl ester

> <iupac>
4-(morpholin-4-yl-(phenoxy)phosphoryl)morpholine

> <SMILES>
O=P(Oc1ccccc1)(N1CCOCC1)N1CCOCC1

> <Canonical_QSARr>
O=P(Oc1ccccc1)(N1CCOCC1)N1CCOCC1

> <InChI_Code_QSARr>
InChI=1S/C14H21N2O4P/c17-21(15-6-10-18-11-7-15,16-8-12-19-13-9-16)20-14-4-2-1-3-5-14/h1-5H,6-13H2

> <InChI Key_QSARr>
ARRSANOSOGNTIJ-UHFFFAOYSA-N

> <Salt_Solvent>
?

> <WS Temperature>
25

> <WS Reference>
BEILSTEIN

> <dsstox_substance_id>
DTXSID10197612

> <LogMolar>
0.3925

$$$$
4920-77-8
  -INDIGO-01081615412D

 18 18  0  0  0  0  0  0  0  0999 V2000
   -3.2000    2.7713    0.0000 O   0  0  0  0  0  0  0  0  0  0  0  0
   -2.3999    1.3856    0.0000 C   0  0  0  0  0  0  0  0  0  0  0  0
   -3.2000    0.0000    0.0000 C   0  0  0  0  0  0  0  0  0  0  0  0
   -4.8000    0.0000    0.0000 H   0  0  0  0  0  0  0  0  0  0  0  0
   -2.3999   -1.3856    0.0000 C   0  0  0  0  0  0  0  0  0  0  0  0
   -3.2000   -2.7713    0.0000 H   0  0  0  0  0  0  0  0  0  0  0  0
   -0.7999   -1.3856    0.0000 C   0  0  0  0  0  0  0  0  0  0  0  0
    0.0000   -2.7713    0.0000 H   0  0  0  0  0  0  0  0  0  0  0  0
    0.0000    0.0000    0.0000 C   0  0  0  0  0  0  0  0  0  0  0  0
    1.6000    0.0000    0.0000 C   0  0  0  0  0  0  0  0  0  0  0  0
    3.2000    0.0000    0.0000 H   0  0  0  0  0  0  0  0  0  0  0  0
    2.4001   -1.3856    0.0000 H   0  0  0  0  0  0  0  0  0  0  0  0
    2.4001    1.3856    0.0000 H   0  0  0  0  0  0  0  0  0  0  0  0
   -0.7999    1.3856    0.0000 C   0  0  0  0  0  0  0  0  0  0  0  0
    0.0000    2.7713    0.0000 N   0  0  0  0  0  0  0  0  0  0  0  0
   -0.8001    4.1569    0.0000 O   0  0  0  0  0  0  0  0  0  0  0  0
    1.6000    2.7713    0.0000 O   0  0  0  0  0  0  0  0  0  0  0  0
   -4.8000    2.7713    0.0000 H   0  0  0  0  0  0  0  0  0  0  0  0
  1  2  1  0  0  0  0
  2  3  4  0  0  0  0
  3  4  1  0  0  0  0
  3  5  4  0  0  0  0
  5  6  1  0  0  0  0
  5  7  4  0  0  0  0
  7  8  1  0  0  0  0
  7  9  4  0  0  0  0
  9 10  1  0  0  0  0
 10 11  1  0  0  0  0
 10 12  1  0  0  0  0
 10 13  1  0  0  0  0
  9 14  4  0  0  0  0
 14  2  4  0  0  0  0
 14 15  1  0  0  0  0
 15 16  2  0  0  0  0
 15 17  1  0  0  0  0
  1 18  1  0  0  0  0
M  CHG  2  15   1  17  -1
M  END
> <CAS>
4920-77-8

> <NAME>
3-METHYL-2-NITROPHENOL

> <preferred_name>
3-Methyl-2-nitrophenol

> <iupac>
3-METHYL-2-NITROPHENOL

> <SMILES>
Cc1cccc(O)c1[N+]([O-])=O

> <Canonical_QSARr>
Cc1cccc(O)c1[N+]([O-])=O

> <InChI_Code_QSARr>
InChI=1S/C7H7NO3/c1-5-3-2-4-6(9)7(5)8(10)11/h2-4,9H,1H3

> <InChI Key_QSARr>
QIORDSKCCHRSSD-UHFFFAOYSA-N

> <Salt_Solvent>
?

> <WS Temperature>
20

> <WS Reference>
SCHWARZENBACH,RP ET AL. (1988)

> <dsstox_substance_id>
DTXSID90197716

> <LogMolar>
-1.6405

$$$$
5003-48-5
  -INDIGO-01081615412D

 38 39  0  0  0  0  0  0  0  0999 V2000
    0.8001    1.3856    0.0000 C   0  0  0  0  0  0  0  0  0  0  0  0
    0.0000   -0.0000    0.0000 C   0  0  0  0  0  0  0  0  0  0  0  0
   -1.6000   -0.0000    0.0000 C   0  0  0  0  0  0  0  0  0  0  0  0
   -2.4001    1.3856    0.0000 O   0  0  0  0  0  0  0  0  0  0  0  0
   -3.9999    1.3856    0.0000 C   0  0  0  0  0  0  0  0  0  0  0  0
   -4.7999    2.7713    0.0000 C   0  0  0  0  0  0  0  0  0  0  0  0
   -3.9999    4.1570    0.0000 H   0  0  0  0  0  0  0  0  0  0  0  0
   -6.4000    2.7713    0.0000 C   0  0  0  0  0  0  0  0  0  0  0  0
   -7.2000    4.1570    0.0000 H   0  0  0  0  0  0  0  0  0  0  0  0
   -7.2000    1.3856    0.0000 C   0  0  0  0  0  0  0  0  0  0  0  0
   -8.8001    1.3856    0.0000 N   0  0  0  0  0  0  0  0  0  0  0  0
   -9.6001    2.7713    0.0000 C   0  0  0  0  0  0  0  0  0  0  0  0
   -8.8001    4.1570    0.0000 O   0  0  0  0  0  0  0  0  0  0  0  0
  -11.1999    2.7713    0.0000 C   0  0  0  0  0  0  0  0  0  0  0  0
  -12.8000    2.7713    0.0000 H   0  0  0  0  0  0  0  0  0  0  0  0
  -12.0000    4.1570    0.0000 H   0  0  0  0  0  0  0  0  0  0  0  0
  -12.0000    1.3856    0.0000 H   0  0  0  0  0  0  0  0  0  0  0  0
   -9.6001   -0.0000    0.0000 H   0  0  0  0  0  0  0  0  0  0  0  0
   -6.4000   -0.0000    0.0000 C   0  0  0  0  0  0  0  0  0  0  0  0
   -7.2000   -1.3857    0.0000 H   0  0  0  0  0  0  0  0  0  0  0  0
   -4.7999   -0.0000    0.0000 C   0  0  0  0  0  0  0  0  0  0  0  0
   -3.9999   -1.3857    0.0000 H   0  0  0  0  0  0  0  0  0  0  0  0
   -2.4001   -1.3857    0.0000 O   0  0  0  0  0  0  0  0  0  0  0  0
    0.8001   -1.3857    0.0000 C   0  0  0  0  0  0  0  0  0  0  0  0
    0.0000   -2.7713    0.0000 H   0  0  0  0  0  0  0  0  0  0  0  0
    2.3999   -1.3857    0.0000 C   0  0  0  0  0  0  0  0  0  0  0  0
    3.1999   -2.7713    0.0000 H   0  0  0  0  0  0  0  0  0  0  0  0
    3.1999   -0.0000    0.0000 C   0  0  0  0  0  0  0  0  0  0  0  0
    4.8000   -0.0000    0.0000 H   0  0  0  0  0  0  0  0  0  0  0  0
    2.3999    1.3856    0.0000 C   0  0  0  0  0  0  0  0  0  0  0  0
    3.1999    2.7713    0.0000 H   0  0  0  0  0  0  0  0  0  0  0  0
    0.0000    2.7713    0.0000 O   0  0  0  0  0  0  0  0  0  0  0  0
    0.8001    4.1570    0.0000 C   0  0  0  0  0  0  0  0  0  0  0  0
    2.3999    4.1570    0.0000 O   0  0  0  0  0  0  0  0  0  0  0  0
    0.0000    5.5426    0.0000 C   0  0  0  0  0  0  0  0  0  0  0  0
   -0.8000    6.9282    0.0000 H   0  0  0  0  0  0  0  0  0  0  0  0
    0.8001    6.9282    0.0000 H   0  0  0  0  0  0  0  0  0  0  0  0
   -1.6000    5.5426    0.0000 H   0  0  0  0  0  0  0  0  0  0  0  0
  1  2  4  0  0  0  0
  2  3  1  0  0  0  0
  3  4  1  0  0  0  0
  4  5  1  0  0  0  0
  5  6  4  0  0  0  0
  6  7  1  0  0  0  0
  6  8  4  0  0  0  0
  8  9  1  0  0  0  0
  8 10  4  0  0  0  0
 10 11  1  0  0  0  0
 11 12  1  0  0  0  0
 12 13  2  0  0  0  0
 12 14  1  0  0  0  0
 14 15  1  0  0  0  0
 14 16  1  0  0  0  0
 14 17  1  0  0  0  0
 11 18  1  0  0  0  0
 10 19  4  0  0  0  0
 19 20  1  0  0  0  0
 19 21  4  0  0  0  0
 21  5  4  0  0  0  0
 21 22  1  0  0  0  0
  3 23  2  0  0  0  0
  2 24  4  0  0  0  0
 24 25  1  0  0  0  0
 24 26  4  0  0  0  0
 26 27  1  0  0  0  0
 26 28  4  0  0  0  0
 28 29  1  0  0  0  0
 28 30  4  0  0  0  0
 30  1  4  0  0  0  0
 30 31  1  0  0  0  0
  1 32  1  0  0  0  0
 32 33  1  0  0  0  0
 33 34  2  0  0  0  0
 33 35  1  0  0  0  0
 35 36  1  0  0  0  0
 35 37  1  0  0  0  0
 35 38  1  0  0  0  0
M  END
> <CAS>
5003-48-5

> <NAME>
BENZOIC ACID, 2-(ACETYLOXY)-, 4-(ACETYLAMINO)PHE

> <preferred_name>
Benorylate

> <iupac>
4-(acetylamino)phenyl 2-(acetyloxy)benzoate

> <SMILES>
CC(=O)Nc1ccc(cc1)OC(=O)c1ccccc1OC(C)=O

> <Canonical_QSARr>
CC(=O)Nc1ccc(cc1)OC(=O)c1ccccc1OC(C)=O

> <InChI_Code_QSARr>
InChI=1S/C17H15NO5/c1-11(19)18-13-7-9-14(10-8-13)23-17(21)15-5-3-4-6-16(15)22-12(2)20/h3-10H,1-2H3,(H,18,19)

> <InChI Key_QSARr>
FEJKLNWAOXSSNR-UHFFFAOYSA-N

> <Salt_Solvent>
?

> <WS Temperature>
21

> <WS Reference>
NIELSEN,NM & BUNDGAARD,H (1989)

> <dsstox_substance_id>
DTXSID5022649

> <LogMolar>
-4.1949

$$$$
5104-49-4
  -INDIGO-01081615412D

 31 32  0  0  0  0  0  0  0  0999 V2000
    3.9757    1.1078    0.0000 C   0  0  0  0  0  0  0  0  0  0  0  0
    4.7757    2.4934    0.0000 F   0  0  0  0  0  0  0  0  0  0  0  0
    2.3757    1.1078    0.0000 C   0  0  0  0  0  0  0  0  0  0  0  0
    1.5757    2.4934    0.0000 H   0  0  0  0  0  0  0  0  0  0  0  0
    1.5757   -0.2779    0.0000 C   0  0  0  0  0  0  0  0  0  0  0  0
    0.0000    0.0000    0.0000 C   0  0  0  0  0  0  0  0  0  0  0  0
   -1.3857    0.8000    0.0000 C   0  0  0  0  0  0  0  0  0  0  0  0
   -2.7714    1.6000    0.0000 H   0  0  0  0  0  0  0  0  0  0  0  0
   -1.3857    2.4000    0.0000 H   0  0  0  0  0  0  0  0  0  0  0  0
   -2.7714    0.0000    0.0000 H   0  0  0  0  0  0  0  0  0  0  0  0
   -0.8000   -1.3856    0.0000 C   0  0  0  0  0  0  0  0  0  0  0  0
   -2.4000   -1.3856    0.0000 O   0  0  0  0  0  0  0  0  0  0  0  0
   -3.2000   -2.7713    0.0000 H   0  0  0  0  0  0  0  0  0  0  0  0
    0.0000   -2.7713    0.0000 O   0  0  0  0  0  0  0  0  0  0  0  0
    0.8000    1.3856    0.0000 H   0  0  0  0  0  0  0  0  0  0  0  0
    2.3757   -1.6635    0.0000 C   0  0  0  0  0  0  0  0  0  0  0  0
    1.5757   -3.0491    0.0000 H   0  0  0  0  0  0  0  0  0  0  0  0
    3.9757   -1.6635    0.0000 C   0  0  0  0  0  0  0  0  0  0  0  0
    4.7757   -3.0491    0.0000 H   0  0  0  0  0  0  0  0  0  0  0  0
    4.7757   -0.2779    0.0000 C   0  0  0  0  0  0  0  0  0  0  0  0
    6.3757   -0.2779    0.0000 C   0  0  0  0  0  0  0  0  0  0  0  0
    7.1757   -1.6635    0.0000 C   0  0  0  0  0  0  0  0  0  0  0  0
    6.3757   -3.0491    0.0000 H   0  0  0  0  0  0  0  0  0  0  0  0
    8.7757   -1.6635    0.0000 C   0  0  0  0  0  0  0  0  0  0  0  0
    9.5757   -3.0491    0.0000 H   0  0  0  0  0  0  0  0  0  0  0  0
    9.5757   -0.2778    0.0000 C   0  0  0  0  0  0  0  0  0  0  0  0
   11.1757   -0.2778    0.0000 H   0  0  0  0  0  0  0  0  0  0  0  0
    8.7757    1.1078    0.0000 C   0  0  0  0  0  0  0  0  0  0  0  0
    9.5757    2.4934    0.0000 H   0  0  0  0  0  0  0  0  0  0  0  0
    7.1757    1.1078    0.0000 C   0  0  0  0  0  0  0  0  0  0  0  0
    6.3757    2.4934    0.0000 H   0  0  0  0  0  0  0  0  0  0  0  0
  1  2  1  0  0  0  0
  1  3  4  0  0  0  0
  3  4  1  0  0  0  0
  3  5  4  0  0  0  0
  5  6  1  0  0  0  0
  6  7  1  0  0  0  0
  7  8  1  0  0  0  0
  7  9  1  0  0  0  0
  7 10  1  0  0  0  0
  6 11  1  0  0  0  0
 11 12  1  0  0  0  0
 12 13  1  0  0  0  0
 11 14  2  0  0  0  0
  6 15  1  0  0  0  0
  5 16  4  0  0  0  0
 16 17  1  0  0  0  0
 16 18  4  0  0  0  0
 18 19  1  0  0  0  0
 18 20  4  0  0  0  0
 20  1  4  0  0  0  0
 20 21  1  0  0  0  0
 21 22  4  0  0  0  0
 22 23  1  0  0  0  0
 22 24  4  0  0  0  0
 24 25  1  0  0  0  0
 24 26  4  0  0  0  0
 26 27  1  0  0  0  0
 26 28  4  0  0  0  0
 28 29  1  0  0  0  0
 28 30  4  0  0  0  0
 30 21  4  0  0  0  0
 30 31  1  0  0  0  0
M  END
> <CAS>
5104-49-4

> <NAME>
FLURBIPROFEN

> <preferred_name>
Flurbiprofen

> <iupac>
2-(2-fluorobiphenyl-4-yl)propanoic acid

> <SMILES>
CC(C(O)=O)c1cc(F)c(cc1)-c1ccccc1

> <Canonical_QSARr>
CC(C(O)=O)c1cc(F)c(cc1)-c1ccccc1

> <InChI_Code_QSARr>
InChI=1S/C15H13FO2/c1-10(15(17)18)12-7-8-13(14(16)9-12)11-5-3-2-4-6-11/h2-10H,1H3,(H,17,18)

> <InChI Key_QSARr>
SYTBZMRGLBWNTM-UHFFFAOYSA-N

> <Salt_Solvent>
?

> <WS Temperature>
22

> <WS Reference>
YALKOWSKY,SH & DANNENFELSER,RM (1992)

> <dsstox_substance_id>
DTXSID0037231

> <LogMolar>
-4.4848

$$$$
5139-67-3
  -INDIGO-01081615412D

 25 24  0  0  0  0  0  0  0  0999 V2000
    1.2257   -1.0285    0.0000 C   0  0  0  0  0  0  0  0  0  0  0  0
    0.0001    0.0000    0.0000 C   0  0  0  0  0  0  0  0  0  0  0  0
   -1.3856    0.7999    0.0000 N   0  0  0  0  0  0  0  0  0  0  0  0
   -2.7714    0.0000    0.0000 C   0  0  0  0  0  0  0  0  0  0  0  0
   -2.7714   -1.6000    0.0000 S   0  0  0  0  0  0  0  0  0  0  0  0
   -4.1569    0.7999    0.0000 S   0  0  0  0  0  0  0  0  0  0  0  0
   -5.5426    0.0000    0.0000 C   0  0  0  0  0  0  0  0  0  0  0  0
   -6.9281   -0.8000    0.0000 C   0  0  0  0  0  0  0  0  0  0  0  0
   -8.3138   -1.6000    0.0000 H   0  0  0  0  0  0  0  0  0  0  0  0
   -8.3138    0.0000    0.0000 H   0  0  0  0  0  0  0  0  0  0  0  0
   -6.9281   -2.4000    0.0000 H   0  0  0  0  0  0  0  0  0  0  0  0
   -6.3425    1.3856    0.0000 H   0  0  0  0  0  0  0  0  0  0  0  0
   -4.7425   -1.3856    0.0000 H   0  0  0  0  0  0  0  0  0  0  0  0
   -1.3856    2.4001    0.0000 H   0  0  0  0  0  0  0  0  0  0  0  0
    0.8000    1.3856    0.0000 C   0  0  0  0  0  0  0  0  0  0  0  0
    0.0001    2.7713    0.0000 O   0  0  0  0  0  0  0  0  0  0  0  0
    0.8000    4.1569    0.0000 H   0  0  0  0  0  0  0  0  0  0  0  0
    2.3757    1.6635    0.0000 O   0  0  0  0  0  0  0  0  0  0  0  0
   -0.8001   -1.3856    0.0000 H   0  0  0  0  0  0  0  0  0  0  0  0
    2.4514   -2.0569    0.0000 C   0  0  0  0  0  0  0  0  0  0  0  0
    2.1736   -3.6327    0.0000 O   0  0  0  0  0  0  0  0  0  0  0  0
    3.3992   -4.6611    0.0000 H   0  0  0  0  0  0  0  0  0  0  0  0
    3.9549   -1.5097    0.0000 O   0  0  0  0  0  0  0  0  0  0  0  0
    0.1972   -2.2542    0.0000 H   0  0  0  0  0  0  0  0  0  0  0  0
    2.2541    0.1973    0.0000 H   0  0  0  0  0  0  0  0  0  0  0  0
  1  2  1  0  0  0  0
  2  3  1  0  0  0  0
  3  4  1  0  0  0  0
  4  5  2  0  0  0  0
  4  6  1  0  0  0  0
  6  7  1  0  0  0  0
  7  8  1  0  0  0  0
  8  9  1  0  0  0  0
  8 10  1  0  0  0  0
  8 11  1  0  0  0  0
  7 12  1  0  0  0  0
  7 13  1  0  0  0  0
  3 14  1  0  0  0  0
  2 15  1  0  0  0  0
 15 16  1  0  0  0  0
 16 17  1  0  0  0  0
 15 18  2  0  0  0  0
  2 19  1  0  0  0  0
  1 20  1  0  0  0  0
 20 21  1  0  0  0  0
 21 22  1  0  0  0  0
 20 23  2  0  0  0  0
  1 24  1  0  0  0  0
  1 25  1  0  0  0  0
M  END
> <CAS>
5139-67-3

> <NAME>
L-Aspartic acid, N-[(ethylthio)thioxomethyl]-

> <preferred_name>


> <iupac>


> <SMILES>
CCSC(=S)N[C@@H](CC(O)=O)C(O)=O

> <Canonical_QSARr>
CCSC(=S)NC(CC(O)=O)C(O)=O

> <InChI_Code_QSARr>
InChI=1S/C7H11NO4S2/c1-2-14-7(13)8-4(6(11)12)3-5(9)10/h4H,2-3H2,1H3,(H,8,13)(H,9,10)(H,11,12)

> <InChI Key_QSARr>
KKUMBCQWVRPGMH-UHFFFAOYSA-N

> <Salt_Solvent>
?

> <WS Temperature>
25

> <WS Reference>
BEILSTEIN

> <dsstox_substance_id>


> <LogMolar>
-1.3863

$$$$
5202-86-8
  -INDIGO-01081615412D

 22 22  0  0  0  0  0  0  0  0999 V2000
    4.8000    0.0000    0.0000 Cl  0  0  0  0  0  0  0  0  0  0  0  0
    3.2000    0.0000    0.0000 C   0  0  0  0  0  0  0  0  0  0  0  0
    2.4001    1.3856    0.0000 C   0  0  0  0  0  0  0  0  0  0  0  0
    3.2000    2.7713    0.0000 H   0  0  0  0  0  0  0  0  0  0  0  0
    0.8000    1.3856    0.0000 C   0  0  0  0  0  0  0  0  0  0  0  0
   -0.0000    2.7713    0.0000 H   0  0  0  0  0  0  0  0  0  0  0  0
   -0.0000    0.0000    0.0000 C   0  0  0  0  0  0  0  0  0  0  0  0
   -1.6000    0.0000    0.0000 N   0  0  0  0  0  0  0  0  0  0  0  0
   -2.3999    1.3856    0.0000 C   0  0  0  0  0  0  0  0  0  0  0  0
   -4.0000    1.3856    0.0000 C   0  0  0  0  0  0  0  0  0  0  0  0
   -5.6000    1.3856    0.0000 H   0  0  0  0  0  0  0  0  0  0  0  0
   -4.8000    2.7713    0.0000 H   0  0  0  0  0  0  0  0  0  0  0  0
   -4.8000    0.0000    0.0000 H   0  0  0  0  0  0  0  0  0  0  0  0
   -1.6000    2.7713    0.0000 O   0  0  0  0  0  0  0  0  0  0  0  0
   -2.3999   -1.3856    0.0000 H   0  0  0  0  0  0  0  0  0  0  0  0
    0.8000   -1.3856    0.0000 C   0  0  0  0  0  0  0  0  0  0  0  0
   -0.0000   -2.7713    0.0000 C   0  0  0  0  0  0  0  0  0  0  0  0
   -0.8000   -4.1569    0.0000 H   0  0  0  0  0  0  0  0  0  0  0  0
    0.8000   -4.1569    0.0000 H   0  0  0  0  0  0  0  0  0  0  0  0
   -1.6000   -2.7713    0.0000 H   0  0  0  0  0  0  0  0  0  0  0  0
    2.4001   -1.3856    0.0000 C   0  0  0  0  0  0  0  0  0  0  0  0
    3.2000   -2.7713    0.0000 H   0  0  0  0  0  0  0  0  0  0  0  0
  1  2  1  0  0  0  0
  2  3  4  0  0  0  0
  3  4  1  0  0  0  0
  3  5  4  0  0  0  0
  5  6  1  0  0  0  0
  5  7  4  0  0  0  0
  7  8  1  0  0  0  0
  8  9  1  0  0  0  0
  9 10  1  0  0  0  0
 10 11  1  0  0  0  0
 10 12  1  0  0  0  0
 10 13  1  0  0  0  0
  9 14  2  0  0  0  0
  8 15  1  0  0  0  0
  7 16  4  0  0  0  0
 16 17  1  0  0  0  0
 17 18  1  0  0  0  0
 17 19  1  0  0  0  0
 17 20  1  0  0  0  0
 16 21  4  0  0  0  0
 21  2  4  0  0  0  0
 21 22  1  0  0  0  0
M  END
> <CAS>
5202-86-8

> <NAME>
Acetamide, N-(4-chloro-2-methylphenyl)-

> <preferred_name>
4-Chloro-2-methylacetanilide

> <iupac>
N-(4-Chloro-2-methylphenyl)acetamide

> <SMILES>
Cc1cc(Cl)ccc1NC(C)=O

> <Canonical_QSARr>
Cc1cc(Cl)ccc1NC(C)=O

> <InChI_Code_QSARr>
InChI=1S/C9H10ClNO/c1-6-5-8(10)3-4-9(6)11-7(2)12/h3-5H,1-2H3,(H,11,12)

> <InChI Key_QSARr>
WMHHXYOPEQARIN-UHFFFAOYSA-N

> <Salt_Solvent>
?

> <WS Temperature>
20

> <WS Reference>
BEILSTEIN

> <dsstox_substance_id>
DTXSID30199991

> <LogMolar>
-2.3097

$$$$
5292-21-7
  -INDIGO-01081615412D

 24 24  0  0  0  0  0  0  0  0999 V2000
    0.0000    0.0000    0.0000 C   0  0  0  0  0  0  0  0  0  0  0  0
    1.5756   -0.2778    0.0000 C   0  0  0  0  0  0  0  0  0  0  0  0
    3.1514   -0.5557    0.0000 C   0  0  0  0  0  0  0  0  0  0  0  0
    3.6987   -2.0591    0.0000 O   0  0  0  0  0  0  0  0  0  0  0  0
    4.1798    0.6700    0.0000 O   0  0  0  0  0  0  0  0  0  0  0  0
    5.7555    0.3921    0.0000 H   0  0  0  0  0  0  0  0  0  0  0  0
    1.8536    1.2979    0.0000 H   0  0  0  0  0  0  0  0  0  0  0  0
    1.5756   -1.8778    0.0000 H   0  0  0  0  0  0  0  0  0  0  0  0
   -1.3857    0.8000    0.0000 C   0  0  0  0  0  0  0  0  0  0  0  0
   -0.3571    2.0257    0.0000 H   0  0  0  0  0  0  0  0  0  0  0  0
   -2.4140    2.0257    0.0000 H   0  0  0  0  0  0  0  0  0  0  0  0
   -2.7712    0.0000    0.0000 C   0  0  0  0  0  0  0  0  0  0  0  0
   -3.3185    1.5035    0.0000 H   0  0  0  0  0  0  0  0  0  0  0  0
   -4.3470   -0.2778    0.0000 H   0  0  0  0  0  0  0  0  0  0  0  0
   -2.7712   -1.6000    0.0000 C   0  0  0  0  0  0  0  0  0  0  0  0
   -4.3470   -1.3222    0.0000 H   0  0  0  0  0  0  0  0  0  0  0  0
   -3.3185   -3.1035    0.0000 H   0  0  0  0  0  0  0  0  0  0  0  0
   -1.3857   -2.4000    0.0000 C   0  0  0  0  0  0  0  0  0  0  0  0
   -2.4140   -3.6257    0.0000 H   0  0  0  0  0  0  0  0  0  0  0  0
   -0.3571   -3.6257    0.0000 H   0  0  0  0  0  0  0  0  0  0  0  0
    0.0000   -1.6000    0.0000 C   0  0  0  0  0  0  0  0  0  0  0  0
    0.5473   -3.1035    0.0000 H   0  0  0  0  0  0  0  0  0  0  0  0
    1.5035   -1.0528    0.0000 H   0  0  0  0  0  0  0  0  0  0  0  0
    0.5473    1.5035    0.0000 H   0  0  0  0  0  0  0  0  0  0  0  0
  1  2  1  0  0  0  0
  2  3  1  0  0  0  0
  3  4  2  0  0  0  0
  3  5  1  0  0  0  0
  5  6  1  0  0  0  0
  2  7  1  0  0  0  0
  2  8  1  0  0  0  0
  1  9  1  0  0  0  0
  9 10  1  0  0  0  0
  9 11  1  0  0  0  0
  9 12  1  0  0  0  0
 12 13  1  0  0  0  0
 12 14  1  0  0  0  0
 12 15  1  0  0  0  0
 15 16  1  0  0  0  0
 15 17  1  0  0  0  0
 15 18  1  0  0  0  0
 18 19  1  0  0  0  0
 18 20  1  0  0  0  0
 18 21  1  0  0  0  0
 21  1  1  0  0  0  0
 21 22  1  0  0  0  0
 21 23  1  0  0  0  0
  1 24  1  0  0  0  0
M  END
> <CAS>
5292-21-7

> <NAME>
CYCLOHEXYLACETIC ACID

> <preferred_name>
Cyclohexaneacetic acid

> <iupac>
2-cyclohexylacetic acid

> <SMILES>
OC(=O)CC1CCCCC1

> <Canonical_QSARr>
OC(=O)CC1CCCCC1

> <InChI_Code_QSARr>
InChI=1S/C8H14O2/c9-8(10)6-7-4-2-1-3-5-7/h7H,1-6H2,(H,9,10)

> <InChI Key_QSARr>
LJOODBDWMQKMFB-UHFFFAOYSA-N

> <Salt_Solvent>
?

> <WS Temperature>
25

> <WS Reference>
NIYAZOV,AN ET AL. (1975)

> <dsstox_substance_id>
DTXSID7063762

> <LogMolar>
-1.6935

$$$$
5329-55-5
  -INDIGO-01081615412D

 38 39  0  0  0  0  0  0  0  0999 V2000
   -1.3856    0.8000    0.0000 O   0  0  0  0  0  0  0  0  0  0  0  0
   -2.7713    0.0000    0.0000 C   0  0  0  0  0  0  0  0  0  0  0  0
   -3.3185    1.5035    0.0000 O   0  0  0  0  0  0  0  0  0  0  0  0
   -4.8943    1.7813    0.0000 C   0  0  0  0  0  0  0  0  0  0  0  0
   -5.4413    3.2849    0.0000 C   0  0  0  0  0  0  0  0  0  0  0  0
   -4.4130    4.5105    0.0000 H   0  0  0  0  0  0  0  0  0  0  0  0
   -7.0171    3.5628    0.0000 C   0  0  0  0  0  0  0  0  0  0  0  0
   -7.5644    5.0662    0.0000 H   0  0  0  0  0  0  0  0  0  0  0  0
   -8.0457    2.3370    0.0000 C   0  0  0  0  0  0  0  0  0  0  0  0
   -9.6213    2.6149    0.0000 H   0  0  0  0  0  0  0  0  0  0  0  0
   -7.4984    0.8336    0.0000 C   0  0  0  0  0  0  0  0  0  0  0  0
   -8.5268   -0.3922    0.0000 H   0  0  0  0  0  0  0  0  0  0  0  0
   -5.9226    0.5557    0.0000 C   0  0  0  0  0  0  0  0  0  0  0  0
   -5.3754   -0.9479    0.0000 H   0  0  0  0  0  0  0  0  0  0  0  0
   -4.3471   -0.2778    0.0000 H   0  0  0  0  0  0  0  0  0  0  0  0
   -2.7713   -1.6000    0.0000 C   0  0  0  0  0  0  0  0  0  0  0  0
   -4.3471   -1.3222    0.0000 O   0  0  0  0  0  0  0  0  0  0  0  0
   -5.3754   -2.5478    0.0000 H   0  0  0  0  0  0  0  0  0  0  0  0
   -3.3185   -3.1035    0.0000 H   0  0  0  0  0  0  0  0  0  0  0  0
   -1.3856   -2.4000    0.0000 C   0  0  0  0  0  0  0  0  0  0  0  0
   -2.4142   -3.6257    0.0000 O   0  0  0  0  0  0  0  0  0  0  0  0
   -1.8670   -5.1292    0.0000 H   0  0  0  0  0  0  0  0  0  0  0  0
   -0.3571   -3.6257    0.0000 H   0  0  0  0  0  0  0  0  0  0  0  0
   -0.0000   -1.6000    0.0000 C   0  0  0  0  0  0  0  0  0  0  0  0
    0.5472   -3.1035    0.0000 O   0  0  0  0  0  0  0  0  0  0  0  0
    2.1230   -3.3813    0.0000 H   0  0  0  0  0  0  0  0  0  0  0  0
    1.5758   -1.3222    0.0000 H   0  0  0  0  0  0  0  0  0  0  0  0
   -0.0000    0.0000    0.0000 C   0  0  0  0  0  0  0  0  0  0  0  0
    0.5472    1.5035    0.0000 C   0  0  0  0  0  0  0  0  0  0  0  0
    1.0945    3.0071    0.0000 C   0  0  0  0  0  0  0  0  0  0  0  0
    1.6417    4.5105    0.0000 O   0  0  0  0  0  0  0  0  0  0  0  0
    3.2173    4.7883    0.0000 H   0  0  0  0  0  0  0  0  0  0  0  0
    2.5979    2.4598    0.0000 H   0  0  0  0  0  0  0  0  0  0  0  0
   -0.4090    3.5542    0.0000 H   0  0  0  0  0  0  0  0  0  0  0  0
    2.0508    0.9563    0.0000 O   0  0  0  0  0  0  0  0  0  0  0  0
    3.5542    1.5035    0.0000 H   0  0  0  0  0  0  0  0  0  0  0  0
   -0.9562    2.0508    0.0000 H   0  0  0  0  0  0  0  0  0  0  0  0
    1.5758   -0.2778    0.0000 H   0  0  0  0  0  0  0  0  0  0  0  0
  1  2  1  0  0  0  0
  2  3  1  0  0  0  0
  3  4  1  0  0  0  0
  4  5  4  0  0  0  0
  5  6  1  0  0  0  0
  5  7  4  0  0  0  0
  7  8  1  0  0  0  0
  7  9  4  0  0  0  0
  9 10  1  0  0  0  0
  9 11  4  0  0  0  0
 11 12  1  0  0  0  0
 11 13  4  0  0  0  0
 13  4  4  0  0  0  0
 13 14  1  0  0  0  0
  2 15  1  0  0  0  0
  2 16  1  0  0  0  0
 16 17  1  0  0  0  0
 17 18  1  0  0  0  0
 16 19  1  0  0  0  0
 16 20  1  0  0  0  0
 20 21  1  0  0  0  0
 21 22  1  0  0  0  0
 20 23  1  0  0  0  0
 20 24  1  0  0  0  0
 24 25  1  0  0  0  0
 25 26  1  0  0  0  0
 24 27  1  0  0  0  0
 24 28  1  0  0  0  0
 28  1  1  0  0  0  0
 28 29  1  0  0  0  0
 29 30  1  0  0  0  0
 30 31  1  0  0  0  0
 31 32  1  0  0  0  0
 30 33  1  0  0  0  0
 30 34  1  0  0  0  0
 29 35  1  0  0  0  0
 35 36  1  0  0  0  0
 29 37  1  0  0  0  0
 28 38  1  0  0  0  0
M  END
> <CAS>
5329-55-5

> <NAME>
D-glycero-D-gulo-heptopyranoside, phenyl, ?-

> <preferred_name>
phenyl heptopyranoside

> <iupac>
C13H18O7

> <SMILES>
OCC(O)C1OC(Oc2ccccc2)C(O)C(O)C1O

> <Canonical_QSARr>
OCC(O)C1OC(Oc2ccccc2)C(O)C(O)C1O

> <InChI_Code_QSARr>
InChI=1S/C13H18O7/c14-6-8(15)12-10(17)9(16)11(18)13(20-12)19-7-4-2-1-3-5-7/h1-5,8-18H,6H2

> <InChI Key_QSARr>
UWYXADYVSWKWAX-UHFFFAOYSA-N

> <Salt_Solvent>
?

> <WS Temperature>
20

> <WS Reference>
BEILSTEIN

> <dsstox_substance_id>
DTXSID60277493

> <LogMolar>
-1.5537

$$$$
5338-45-4
  -INDIGO-01081615412D

 24 23  0  0  0  0  0  0  0  0999 V2000
    3.8071   -0.2912    0.0000 C   0  0  0  0  0  0  0  0  0  0  0  0
    5.4071   -0.2912    0.0000 O   0  0  0  0  0  0  0  0  0  0  0  0
    6.2070   -1.6768    0.0000 H   0  0  0  0  0  0  0  0  0  0  0  0
    3.2597   -1.7947    0.0000 O   0  0  0  0  0  0  0  0  0  0  0  0
    3.0070    1.0945    0.0000 C   0  0  0  0  0  0  0  0  0  0  0  0
    4.3927    1.8944    0.0000 N   0  0  0  0  0  0  0  0  0  0  0  0
    4.3927    3.4944    0.0000 C   0  0  0  0  0  0  0  0  0  0  0  0
    5.7783    4.2945    0.0000 O   0  0  0  0  0  0  0  0  0  0  0  0
    3.0070    4.2945    0.0000 H   0  0  0  0  0  0  0  0  0  0  0  0
    5.7783    1.0945    0.0000 H   0  0  0  0  0  0  0  0  0  0  0  0
    1.5035    0.5473    0.0000 C   0  0  0  0  0  0  0  0  0  0  0  0
   -0.0000    0.0000    0.0000 C   0  0  0  0  0  0  0  0  0  0  0  0
   -1.3857   -0.8000    0.0000 C   0  0  0  0  0  0  0  0  0  0  0  0
   -2.7713   -1.6000    0.0000 H   0  0  0  0  0  0  0  0  0  0  0  0
   -1.3857   -2.4000    0.0000 H   0  0  0  0  0  0  0  0  0  0  0  0
   -2.7713    0.0000    0.0000 H   0  0  0  0  0  0  0  0  0  0  0  0
   -0.8000    1.3856    0.0000 C   0  0  0  0  0  0  0  0  0  0  0  0
   -1.6001    2.7713    0.0000 H   0  0  0  0  0  0  0  0  0  0  0  0
   -2.4000    1.3856    0.0000 H   0  0  0  0  0  0  0  0  0  0  0  0
   -0.0000    2.7713    0.0000 H   0  0  0  0  0  0  0  0  0  0  0  0
    0.8000   -1.3856    0.0000 H   0  0  0  0  0  0  0  0  0  0  0  0
    2.0507   -0.9563    0.0000 H   0  0  0  0  0  0  0  0  0  0  0  0
    0.9562    2.0507    0.0000 H   0  0  0  0  0  0  0  0  0  0  0  0
    2.2070    2.4801    0.0000 H   0  0  0  0  0  0  0  0  0  0  0  0
  1  2  1  0  0  0  0
  2  3  1  0  0  0  0
  1  4  2  0  0  0  0
  1  5  1  0  0  0  0
  5  6  1  0  0  0  0
  6  7  1  0  0  0  0
  7  8  2  0  0  0  0
  7  9  1  0  0  0  0
  6 10  1  0  0  0  0
  5 11  1  0  0  0  0
 11 12  1  0  0  0  0
 12 13  1  0  0  0  0
 13 14  1  0  0  0  0
 13 15  1  0  0  0  0
 13 16  1  0  0  0  0
 12 17  1  0  0  0  0
 17 18  1  0  0  0  0
 17 19  1  0  0  0  0
 17 20  1  0  0  0  0
 12 21  1  0  0  0  0
 11 22  1  0  0  0  0
 11 23  1  0  0  0  0
  5 24  1  0  0  0  0
M  END
> <CAS>
5338-45-4

> <NAME>
DL-Leucine, N-formyl-

> <preferred_name>


> <iupac>


> <SMILES>
CC(C)C[C@H](NC=O)C(O)=O

> <Canonical_QSARr>
CC(C)CC(NC=O)C(O)=O

> <InChI_Code_QSARr>
InChI=1S/C7H13NO3/c1-5(2)3-6(7(10)11)8-4-9/h4-6H,3H2,1-2H3,(H,8,9)(H,10,11)

> <InChI Key_QSARr>
HFBHOAHFRNLZGN-UHFFFAOYSA-N

> <Salt_Solvent>
?

> <WS Temperature>
25

> <WS Reference>
BEILSTEIN

> <dsstox_substance_id>


> <LogMolar>
-0.7328

$$$$
5370-57-0
  -INDIGO-01081615412D

 18 18  0  0  0  0  0  0  0  0999 V2000
    0.4944    1.5217    0.0000 N   0  0  0  0  0  0  0  0  0  0  0  0
   -0.4460    2.8161    0.0000 C   0  0  0  0  0  0  0  0  0  0  0  0
   -1.3865    4.1105    0.0000 H   0  0  0  0  0  0  0  0  0  0  0  0
    0.2047    4.2778    0.0000 H   0  0  0  0  0  0  0  0  0  0  0  0
   -2.0373    2.6489    0.0000 H   0  0  0  0  0  0  0  0  0  0  0  0
    0.0000    0.0000    0.0000 C   0  0  0  0  0  0  0  0  0  0  0  0
   -1.4617    0.6508    0.0000 H   0  0  0  0  0  0  0  0  0  0  0  0
   -0.8000   -1.3857    0.0000 H   0  0  0  0  0  0  0  0  0  0  0  0
    1.2945   -0.9404    0.0000 C   0  0  0  0  0  0  0  0  0  0  0  0
    0.2238   -2.1295    0.0000 H   0  0  0  0  0  0  0  0  0  0  0  0
    2.3650   -2.1295    0.0000 H   0  0  0  0  0  0  0  0  0  0  0  0
    2.5888    0.0000    0.0000 C   0  0  0  0  0  0  0  0  0  0  0  0
    4.1105   -0.4944    0.0000 H   0  0  0  0  0  0  0  0  0  0  0  0
    2.0945    1.5217    0.0000 C   0  0  0  0  0  0  0  0  0  0  0  0
    3.0349    2.8161    0.0000 C   0  0  0  0  0  0  0  0  0  0  0  0
    3.9754    4.1105    0.0000 H   0  0  0  0  0  0  0  0  0  0  0  0
    4.6261    2.6489    0.0000 H   0  0  0  0  0  0  0  0  0  0  0  0
    2.3841    4.2778    0.0000 H   0  0  0  0  0  0  0  0  0  0  0  0
  1  2  1  0  0  0  0
  2  3  1  0  0  0  0
  2  4  1  0  0  0  0
  2  5  1  0  0  0  0
  1  6  1  0  0  0  0
  6  7  1  0  0  0  0
  6  8  1  0  0  0  0
  6  9  1  0  0  0  0
  9 10  1  0  0  0  0
  9 11  1  0  0  0  0
  9 12  1  0  0  0  0
 12 13  1  0  0  0  0
 12 14  2  0  0  0  0
 14  1  1  0  0  0  0
 14 15  1  0  0  0  0
 15 16  1  0  0  0  0
 15 17  1  0  0  0  0
 15 18  1  0  0  0  0
M  END
> <CAS>
5370-57-0

> <NAME>
1H-PYRROLE, 2,3-DIHYDRO-1,5-DIMETHYL-

> <preferred_name>


> <iupac>


> <SMILES>
CC1=CCCN1C

> <Canonical_QSARr>
CC1=CCCN1C

> <InChI_Code_QSARr>
InChI=1S/C6H11N/c1-6-4-3-5-7(6)2/h4H,3,5H2,1-2H3

> <InChI Key_QSARr>
MFGQUMAXNNHCNG-UHFFFAOYSA-N

> <Salt_Solvent>
?

> <WS Temperature>


> <WS Reference>
BEILSTEIN

> <dsstox_substance_id>


> <LogMolar>
0.1265

$$$$
5422-69-5
  -INDIGO-01081615412D

 29 28  0  0  0  0  0  0  0  0999 V2000
   -2.7713    1.6001    0.0000 O   0  0  0  0  0  0  0  0  0  0  0  0
   -4.1570    0.7999    0.0000 C   0  0  0  0  0  0  0  0  0  0  0  0
   -5.5425    1.6001    0.0000 C   0  0  0  0  0  0  0  0  0  0  0  0
   -6.7683    2.6285    0.0000 C   0  0  0  0  0  0  0  0  0  0  0  0
   -7.9940    3.6569    0.0000 H   0  0  0  0  0  0  0  0  0  0  0  0
   -8.2718    2.0812    0.0000 H   0  0  0  0  0  0  0  0  0  0  0  0
   -6.4905    4.2042    0.0000 H   0  0  0  0  0  0  0  0  0  0  0  0
   -6.3426    0.2144    0.0000 O   0  0  0  0  0  0  0  0  0  0  0  0
   -7.8461   -0.3329    0.0000 C   0  0  0  0  0  0  0  0  0  0  0  0
   -8.1239   -1.9086    0.0000 C   0  0  0  0  0  0  0  0  0  0  0  0
   -8.4018   -3.4843    0.0000 H   0  0  0  0  0  0  0  0  0  0  0  0
   -9.6274   -2.4559    0.0000 H   0  0  0  0  0  0  0  0  0  0  0  0
   -6.8983   -2.9370    0.0000 H   0  0  0  0  0  0  0  0  0  0  0  0
   -9.0717    0.6955    0.0000 O   0  0  0  0  0  0  0  0  0  0  0  0
   -4.7426    2.9857    0.0000 H   0  0  0  0  0  0  0  0  0  0  0  0
   -4.1570   -0.8000    0.0000 O   0  0  0  0  0  0  0  0  0  0  0  0
   -1.3856    0.7999    0.0000 C   0  0  0  0  0  0  0  0  0  0  0  0
    0.0001   -0.0000    0.0000 C   0  0  0  0  0  0  0  0  0  0  0  0
    1.3855   -0.8000    0.0000 C   0  0  0  0  0  0  0  0  0  0  0  0
    2.7712   -1.6000    0.0000 C   0  0  0  0  0  0  0  0  0  0  0  0
    4.1569   -2.4000    0.0000 H   0  0  0  0  0  0  0  0  0  0  0  0
    2.7712   -3.2000    0.0000 H   0  0  0  0  0  0  0  0  0  0  0  0
    4.1569   -0.8000    0.0000 H   0  0  0  0  0  0  0  0  0  0  0  0
    0.5856   -2.1857    0.0000 H   0  0  0  0  0  0  0  0  0  0  0  0
    2.1857    0.5856    0.0000 H   0  0  0  0  0  0  0  0  0  0  0  0
    0.8000    1.3856    0.0000 H   0  0  0  0  0  0  0  0  0  0  0  0
   -0.8001   -1.3857    0.0000 H   0  0  0  0  0  0  0  0  0  0  0  0
   -2.1857   -0.5857    0.0000 H   0  0  0  0  0  0  0  0  0  0  0  0
   -0.5857    2.1856    0.0000 H   0  0  0  0  0  0  0  0  0  0  0  0
  1  2  1  0  0  0  0
  2  3  1  0  0  0  0
  3  4  1  0  0  0  0
  4  5  1  0  0  0  0
  4  6  1  0  0  0  0
  4  7  1  0  0  0  0
  3  8  1  0  0  0  0
  8  9  1  0  0  0  0
  9 10  1  0  0  0  0
 10 11  1  0  0  0  0
 10 12  1  0  0  0  0
 10 13  1  0  0  0  0
  9 14  2  0  0  0  0
  3 15  1  0  0  0  0
  2 16  2  0  0  0  0
  1 17  1  0  0  0  0
 17 18  1  0  0  0  0
 18 19  1  0  0  0  0
 19 20  1  0  0  0  0
 20 21  1  0  0  0  0
 20 22  1  0  0  0  0
 20 23  1  0  0  0  0
 19 24  1  0  0  0  0
 19 25  1  0  0  0  0
 18 26  1  0  0  0  0
 18 27  1  0  0  0  0
 17 28  1  0  0  0  0
 17 29  1  0  0  0  0
M  END
> <CAS>
5422-69-5

> <NAME>
2-acetoxy-propionic acid butyl ester

> <preferred_name>
butyl 2-acetoxypropanoate

> <iupac>
C9H16O4

> <SMILES>
CC(=O)OC(C)C(=O)OCCCC

> <Canonical_QSARr>
CC(=O)OC(C)C(=O)OCCCC

> <InChI_Code_QSARr>
InChI=1S/C9H16O4/c1-4-5-6-12-9(11)7(2)13-8(3)10/h7H,4-6H2,1-3H3

> <InChI Key_QSARr>
FRKISMRVEIRXFS-UHFFFAOYSA-N

> <Salt_Solvent>
?

> <WS Temperature>
25

> <WS Reference>
BEILSTEIN

> <dsstox_substance_id>
DTXSID20279276

> <LogMolar>
-0.7536

$$$$
5428-54-6
  -INDIGO-01081615412D

 18 18  0  0  0  0  0  0  0  0999 V2000
    4.1569    4.0000    0.0000 O   0  0  0  0  0  0  0  0  0  0  0  0
    4.1569    2.4000    0.0000 N   0  0  0  0  0  0  0  0  0  0  0  0
    2.7713    1.6000    0.0000 C   0  0  0  0  0  0  0  0  0  0  0  0
    1.3856    2.4000    0.0000 C   0  0  0  0  0  0  0  0  0  0  0  0
    1.3856    4.0000    0.0000 H   0  0  0  0  0  0  0  0  0  0  0  0
    0.0000    1.6000    0.0000 C   0  0  0  0  0  0  0  0  0  0  0  0
   -1.3857    2.4000    0.0000 O   0  0  0  0  0  0  0  0  0  0  0  0
   -1.3856    4.0000    0.0000 H   0  0  0  0  0  0  0  0  0  0  0  0
    0.0000    0.0000    0.0000 C   0  0  0  0  0  0  0  0  0  0  0  0
   -1.3856   -0.8000    0.0000 C   0  0  0  0  0  0  0  0  0  0  0  0
   -2.7713   -1.6000    0.0000 H   0  0  0  0  0  0  0  0  0  0  0  0
   -1.3856   -2.4000    0.0000 H   0  0  0  0  0  0  0  0  0  0  0  0
   -2.7713    0.0000    0.0000 H   0  0  0  0  0  0  0  0  0  0  0  0
    1.3856   -0.8000    0.0000 C   0  0  0  0  0  0  0  0  0  0  0  0
    1.3856   -2.4000    0.0000 H   0  0  0  0  0  0  0  0  0  0  0  0
    2.7713    0.0000    0.0000 C   0  0  0  0  0  0  0  0  0  0  0  0
    4.1570   -0.8000    0.0000 H   0  0  0  0  0  0  0  0  0  0  0  0
    5.5426    1.6000    0.0000 O   0  0  0  0  0  0  0  0  0  0  0  0
  1  2  2  0  0  0  0
  2  3  1  0  0  0  0
  3  4  4  0  0  0  0
  4  5  1  0  0  0  0
  4  6  4  0  0  0  0
  6  7  1  0  0  0  0
  7  8  1  0  0  0  0
  6  9  4  0  0  0  0
  9 10  1  0  0  0  0
 10 11  1  0  0  0  0
 10 12  1  0  0  0  0
 10 13  1  0  0  0  0
  9 14  4  0  0  0  0
 14 15  1  0  0  0  0
 14 16  4  0  0  0  0
 16  3  4  0  0  0  0
 16 17  1  0  0  0  0
  2 18  1  0  0  0  0
M  CHG  2   2   1  18  -1
M  END
> <CAS>
5428-54-6

> <NAME>
PHENOL, 2-METHYL-5-NITRO-

> <preferred_name>
Phenol, 2-methyl-5-nitro-

> <iupac>
2-Methyl-5-nitrophenol

> <SMILES>
Cc1ccc(cc1O)[N+]([O-])=O

> <Canonical_QSARr>
Cc1ccc(cc1O)[N+]([O-])=O

> <InChI_Code_QSARr>
InChI=1S/C7H7NO3/c1-5-2-3-6(8(10)11)4-7(5)9/h2-4,9H,1H3

> <InChI Key_QSARr>
UMFDLIXUUJMPSI-UHFFFAOYSA-N

> <Salt_Solvent>
?

> <WS Temperature>
25

> <WS Reference>
CHEMICALS INSPECTION AND TESTING INSTITU (1992)

> <dsstox_substance_id>
DTXSID4063874

> <LogMolar>
-2.1851

$$$$
5445-04-5
  -INDIGO-01081615412D

 26 26  0  0  0  0  0  0  0  0999 V2000
    8.0000   -0.0000    0.0000 Cl  0  0  0  0  0  0  0  0  0  0  0  0
    6.3999   -0.0000    0.0000 C   0  0  0  0  0  0  0  0  0  0  0  0
    5.6000    1.3857    0.0000 C   0  0  0  0  0  0  0  0  0  0  0  0
    6.3999    2.7713    0.0000 H   0  0  0  0  0  0  0  0  0  0  0  0
    4.0000    1.3857    0.0000 C   0  0  0  0  0  0  0  0  0  0  0  0
    3.2000    2.7713    0.0000 H   0  0  0  0  0  0  0  0  0  0  0  0
    3.2000   -0.0000    0.0000 C   0  0  0  0  0  0  0  0  0  0  0  0
    1.6000   -0.0000    0.0000 S   0  0  0  0  0  0  0  0  0  0  0  0
   -0.0001   -0.0000    0.0000 C   0  0  0  0  0  0  0  0  0  0  0  0
   -1.5999   -0.0000    0.0000 C   0  0  0  0  0  0  0  0  0  0  0  0
   -3.1756    0.2779    0.0000 C   0  0  0  0  0  0  0  0  0  0  0  0
   -4.2042   -0.9478    0.0000 O   0  0  0  0  0  0  0  0  0  0  0  0
   -3.7229    1.7813    0.0000 O   0  0  0  0  0  0  0  0  0  0  0  0
   -5.2986    2.0592    0.0000 H   0  0  0  0  0  0  0  0  0  0  0  0
   -1.8779   -1.5757    0.0000 N   0  0  0  0  0  0  0  0  0  0  0  0
   -3.3814   -2.1229    0.0000 H   0  0  0  0  0  0  0  0  0  0  0  0
   -0.8493   -2.8014    0.0000 H   0  0  0  0  0  0  0  0  0  0  0  0
   -1.3221    1.5757    0.0000 H   0  0  0  0  0  0  0  0  0  0  0  0
   -0.0001   -1.6000    0.0000 H   0  0  0  0  0  0  0  0  0  0  0  0
   -0.0001    1.6000    0.0000 H   0  0  0  0  0  0  0  0  0  0  0  0
    1.6000    1.6000    0.0000 O   0  0  0  0  0  0  0  0  0  0  0  0
    1.6000   -1.6000    0.0000 O   0  0  0  0  0  0  0  0  0  0  0  0
    4.0000   -1.3856    0.0000 C   0  0  0  0  0  0  0  0  0  0  0  0
    3.2000   -2.7713    0.0000 H   0  0  0  0  0  0  0  0  0  0  0  0
    5.6000   -1.3856    0.0000 C   0  0  0  0  0  0  0  0  0  0  0  0
    6.3999   -2.7713    0.0000 H   0  0  0  0  0  0  0  0  0  0  0  0
  1  2  1  0  0  0  0
  2  3  4  0  0  0  0
  3  4  1  0  0  0  0
  3  5  4  0  0  0  0
  5  6  1  0  0  0  0
  5  7  4  0  0  0  0
  7  8  1  0  0  0  0
  8  9  1  0  0  0  0
  9 10  1  0  0  0  0
 10 11  1  0  0  0  0
 11 12  2  0  0  0  0
 11 13  1  0  0  0  0
 13 14  1  0  0  0  0
 10 15  1  0  0  0  0
 15 16  1  0  0  0  0
 15 17  1  0  0  0  0
 10 18  1  0  0  0  0
  9 19  1  0  0  0  0
  9 20  1  0  0  0  0
  8 21  2  0  0  0  0
  8 22  2  0  0  0  0
  7 23  4  0  0  0  0
 23 24  1  0  0  0  0
 23 25  4  0  0  0  0
 25  2  4  0  0  0  0
 25 26  1  0  0  0  0
M  END
> <CAS>
5445-04-5

> <NAME>
Propanoic acid, 2-amino-3-(4-chlorobenzenesulfon

> <preferred_name>
2-amino-3-(4-chlorophenyl)sulfonylpropanoic acid

> <iupac>
C9H10ClNO4S

> <SMILES>
NC(CS(=O)(=O)c1ccc(Cl)cc1)C(O)=O

> <Canonical_QSARr>
NC(CS(=O)(=O)c1ccc(Cl)cc1)C(O)=O

> <InChI_Code_QSARr>
InChI=1S/C9H10ClNO4S/c10-6-1-3-7(4-2-6)16(14,15)5-8(11)9(12)13/h1-4,8H,5,11H2,(H,12,13)

> <InChI Key_QSARr>
AWAQUVZKSIXTRR-UHFFFAOYSA-N

> <Salt_Solvent>
?

> <WS Temperature>


> <WS Reference>
BEILSTEIN

> <dsstox_substance_id>
DTXSID30396827

> <LogMolar>
-2.5324

$$$$
5459-50-7
  -INDIGO-01081615412D

 16 16  0  0  0  0  0  0  0  0999 V2000
    1.3856    2.4000    0.0000 I   0  0  0  0  0  0  0  0  0  0  0  0
    0.0000    1.6000    0.0000 C   0  0  0  0  0  0  0  0  0  0  0  0
   -1.3857    2.4000    0.0000 C   0  0  0  0  0  0  0  0  0  0  0  0
   -1.3857    4.0000    0.0000 H   0  0  0  0  0  0  0  0  0  0  0  0
   -2.7713    1.6000    0.0000 C   0  0  0  0  0  0  0  0  0  0  0  0
   -4.1570    2.4000    0.0000 H   0  0  0  0  0  0  0  0  0  0  0  0
   -2.7713    0.0000    0.0000 C   0  0  0  0  0  0  0  0  0  0  0  0
   -4.1569   -0.8000    0.0000 N   0  0  0  0  0  0  0  0  0  0  0  0
   -5.5426    0.0000    0.0000 O   0  0  0  0  0  0  0  0  0  0  0  0
   -4.1569   -2.4000    0.0000 O   0  0  0  0  0  0  0  0  0  0  0  0
   -1.3857   -0.8000    0.0000 C   0  0  0  0  0  0  0  0  0  0  0  0
   -1.3857   -2.4000    0.0000 H   0  0  0  0  0  0  0  0  0  0  0  0
    0.0000    0.0000    0.0000 C   0  0  0  0  0  0  0  0  0  0  0  0
    1.3857   -0.8000    0.0000 N   0  0  0  0  0  0  0  0  0  0  0  0
    2.7713    0.0000    0.0000 H   0  0  0  0  0  0  0  0  0  0  0  0
    1.3857   -2.4000    0.0000 H   0  0  0  0  0  0  0  0  0  0  0  0
  1  2  1  0  0  0  0
  2  3  4  0  0  0  0
  3  4  1  0  0  0  0
  3  5  4  0  0  0  0
  5  6  1  0  0  0  0
  5  7  4  0  0  0  0
  7  8  1  0  0  0  0
  8  9  2  0  0  0  0
  8 10  1  0  0  0  0
  7 11  4  0  0  0  0
 11 12  1  0  0  0  0
 11 13  4  0  0  0  0
 13  2  4  0  0  0  0
 13 14  1  0  0  0  0
 14 15  1  0  0  0  0
 14 16  1  0  0  0  0
M  CHG  2   8   1  10  -1
M  END
> <CAS>
5459-50-7

> <NAME>
Benzenamine, 2-iodo-5-nitro-

> <preferred_name>
2-iodo-5-nitroaniline

> <iupac>
C6H5IN2O2

> <SMILES>
Nc1cc(ccc1I)[N+]([O-])=O

> <Canonical_QSARr>
Nc1cc(ccc1I)[N+]([O-])=O

> <InChI_Code_QSARr>
InChI=1S/C6H5IN2O2/c7-5-2-1-4(9(10)11)3-6(5)8/h1-3H,8H2

> <InChI Key_QSARr>
VKQOHFHGWCXKOA-UHFFFAOYSA-N

> <Salt_Solvent>
?

> <WS Temperature>
25

> <WS Reference>
BEILSTEIN

> <dsstox_substance_id>
DTXSID10282072

> <LogMolar>
-4.4216

$$$$
5464-39-1
  -INDIGO-01081615412D

 33 32  0  0  0  0  0  0  0  0999 V2000
    0.2778    1.5757    0.0000 C   0  0  0  0  0  0  0  0  0  0  0  0
   -0.9478    2.6041    0.0000 O   0  0  0  0  0  0  0  0  0  0  0  0
   -0.6699    4.1799    0.0000 H   0  0  0  0  0  0  0  0  0  0  0  0
   -0.0001    0.0001    0.0000 C   0  0  0  0  0  0  0  0  0  0  0  0
    1.6000    0.0001    0.0000 N   0  0  0  0  0  0  0  0  0  0  0  0
    2.4000    1.3856    0.0000 C   0  0  0  0  0  0  0  0  0  0  0  0
    3.1999    2.7712    0.0000 C   0  0  0  0  0  0  0  0  0  0  0  0
    4.0000    4.1569    0.0000 C   0  0  0  0  0  0  0  0  0  0  0  0
    4.8000    5.5426    0.0000 N   0  0  0  0  0  0  0  0  0  0  0  0
    4.5856    1.9713    0.0000 H   0  0  0  0  0  0  0  0  0  0  0  0
    1.8144    3.5713    0.0000 H   0  0  0  0  0  0  0  0  0  0  0  0
    3.7857    0.5857    0.0000 H   0  0  0  0  0  0  0  0  0  0  0  0
    1.7852    2.1182    0.0000 H   0  0  0  0  0  0  0  0  0  0  0  0
    2.4000   -1.3856    0.0000 C   0  0  0  0  0  0  0  0  0  0  0  0
    3.1999   -2.7712    0.0000 C   0  0  0  0  0  0  0  0  0  0  0  0
    4.0000   -4.1569    0.0000 C   0  0  0  0  0  0  0  0  0  0  0  0
    4.8000   -5.5426    0.0000 N   0  0  0  0  0  0  0  0  0  0  0  0
    4.5856   -1.9713    0.0000 H   0  0  0  0  0  0  0  0  0  0  0  0
    1.8144   -3.5713    0.0000 H   0  0  0  0  0  0  0  0  0  0  0  0
    3.7857   -0.5857    0.0000 H   0  0  0  0  0  0  0  0  0  0  0  0
    1.0144   -2.1856    0.0000 H   0  0  0  0  0  0  0  0  0  0  0  0
   -1.5756   -0.2778    0.0000 C   0  0  0  0  0  0  0  0  0  0  0  0
   -3.1514   -0.5557    0.0000 C   0  0  0  0  0  0  0  0  0  0  0  0
   -4.7271   -0.8335    0.0000 C   0  0  0  0  0  0  0  0  0  0  0  0
   -5.2743   -2.3370    0.0000 O   0  0  0  0  0  0  0  0  0  0  0  0
   -6.8500   -2.6148    0.0000 H   0  0  0  0  0  0  0  0  0  0  0  0
   -5.7555    0.3922    0.0000 O   0  0  0  0  0  0  0  0  0  0  0  0
   -2.8735   -2.1314    0.0000 H   0  0  0  0  0  0  0  0  0  0  0  0
   -3.4292    1.0200    0.0000 H   0  0  0  0  0  0  0  0  0  0  0  0
   -1.2978   -1.8536    0.0000 H   0  0  0  0  0  0  0  0  0  0  0  0
   -1.8535    1.2978    0.0000 H   0  0  0  0  0  0  0  0  0  0  0  0
   -0.0001   -1.6001    0.0000 H   0  0  0  0  0  0  0  0  0  0  0  0
    1.0144    2.1856    0.0000 O   0  0  0  0  0  0  0  0  0  0  0  0
  1  2  1  0  0  0  0
  2  3  1  0  0  0  0
  1  4  1  0  0  0  0
  4  5  1  0  0  0  0
  5  6  1  0  0  0  0
  6  7  1  0  0  0  0
  7  8  1  0  0  0  0
  8  9  3  0  0  0  0
  7 10  1  0  0  0  0
  7 11  1  0  0  0  0
  6 12  1  0  0  0  0
  6 13  1  0  0  0  0
  5 14  1  0  0  0  0
 14 15  1  0  0  0  0
 15 16  1  0  0  0  0
 16 17  3  0  0  0  0
 15 18  1  0  0  0  0
 15 19  1  0  0  0  0
 14 20  1  0  0  0  0
 14 21  1  0  0  0  0
  4 22  1  0  0  0  0
 22 23  1  0  0  0  0
 23 24  1  0  0  0  0
 24 25  1  0  0  0  0
 25 26  1  0  0  0  0
 24 27  2  0  0  0  0
 23 28  1  0  0  0  0
 23 29  1  0  0  0  0
 22 30  1  0  0  0  0
 22 31  1  0  0  0  0
  4 32  1  0  0  0  0
  1 33  2  0  0  0  0
M  END
> <CAS>
5464-39-1

> <NAME>
L-Glutamic acid, N,N-bis(2-cyanoethyl)-

> <preferred_name>


> <iupac>


> <SMILES>
N#CCCN(CCC#N)[C@@H](CCC(O)=O)C(O)=O

> <Canonical_QSARr>
N#CCCN(CCC#N)C(CCC(O)=O)C(O)=O

> <InChI_Code_QSARr>
InChI=1S/C11H15N3O4/c12-5-1-7-14(8-2-6-13)9(11(17)18)3-4-10(15)16/h9H,1-4,7-8H2,(H,15,16)(H,17,18)

> <InChI Key_QSARr>
JQXSGQACFFFOIU-UHFFFAOYSA-N

> <Salt_Solvent>
?

> <WS Temperature>
26

> <WS Reference>
BEILSTEIN

> <dsstox_substance_id>


> <LogMolar>
-0.2275

$$$$
5469-28-3
  -INDIGO-01081615412D

 21 20  0  0  0  0  0  0  0  0999 V2000
   -4.0000    1.3856    0.0000 O   0  0  0  0  0  0  0  0  0  0  0  0
   -2.4001    1.3856    0.0000 C   0  0  0  0  0  0  0  0  0  0  0  0
   -1.6001    0.0000    0.0000 C   0  0  0  0  0  0  0  0  0  0  0  0
   -2.4001   -1.3856    0.0000 C   0  0  0  0  0  0  0  0  0  0  0  0
   -4.0000   -1.3856    0.0000 C   0  0  0  0  0  0  0  0  0  0  0  0
   -4.8000    0.0000    0.0000 O   0  0  0  0  0  0  0  0  0  0  0  0
   -4.8000   -2.7713    0.0000 O   0  0  0  0  0  0  0  0  0  0  0  0
   -6.4000   -2.7713    0.0000 H   0  0  0  0  0  0  0  0  0  0  0  0
   -1.6001   -2.7713    0.0000 H   0  0  0  0  0  0  0  0  0  0  0  0
    0.0001    0.0000    0.0000 C   0  0  0  0  0  0  0  0  0  0  0  0
    1.6000    0.0000    0.0000 C   0  0  0  0  0  0  0  0  0  0  0  0
    3.2000    0.0000    0.0000 C   0  0  0  0  0  0  0  0  0  0  0  0
    4.8000    0.0000    0.0000 H   0  0  0  0  0  0  0  0  0  0  0  0
    4.0000    1.3856    0.0000 H   0  0  0  0  0  0  0  0  0  0  0  0
    4.0000   -1.3856    0.0000 H   0  0  0  0  0  0  0  0  0  0  0  0
    1.6000   -1.6000    0.0000 H   0  0  0  0  0  0  0  0  0  0  0  0
    1.6000    1.6000    0.0000 H   0  0  0  0  0  0  0  0  0  0  0  0
    0.0001    1.6000    0.0000 H   0  0  0  0  0  0  0  0  0  0  0  0
    0.0001   -1.6000    0.0000 H   0  0  0  0  0  0  0  0  0  0  0  0
   -1.6001    2.7713    0.0000 O   0  0  0  0  0  0  0  0  0  0  0  0
   -4.8000    2.7713    0.0000 H   0  0  0  0  0  0  0  0  0  0  0  0
  1  2  1  0  0  0  0
  2  3  1  0  0  0  0
  3  4  2  0  0  0  0
  4  5  1  0  0  0  0
  5  6  2  0  0  0  0
  5  7  1  0  0  0  0
  7  8  1  0  0  0  0
  4  9  1  0  0  0  0
  3 10  1  0  0  0  0
 10 11  1  0  0  0  0
 11 12  1  0  0  0  0
 12 13  1  0  0  0  0
 12 14  1  0  0  0  0
 12 15  1  0  0  0  0
 11 16  1  0  0  0  0
 11 17  1  0  0  0  0
 10 18  1  0  0  0  0
 10 19  1  0  0  0  0
  2 20  2  0  0  0  0
  1 21  1  0  0  0  0
M  END
> <CAS>
5469-28-3

> <NAME>
2-Butenedioic acid, 2-propyl-, (E)-

> <preferred_name>
2-propylbut-2-enedioic acid

> <iupac>
C7H10O4

> <SMILES>
CCCC(=CC(O)=O)C(O)=O

> <Canonical_QSARr>
CCCC(=CC(O)=O)C(O)=O

> <InChI_Code_QSARr>
InChI=1S/C7H10O4/c1-2-3-5(7(10)11)4-6(8)9/h4H,2-3H2,1H3,(H,8,9)(H,10,11)/b5-4-

> <InChI Key_QSARr>
CCKSYUMJLIMSQK-PLNGDYQASA-N

> <Salt_Solvent>
?

> <WS Temperature>
25

> <WS Reference>
BEILSTEIN

> <dsstox_substance_id>
DTXSID90282272

> <LogMolar>
-1.1538

$$$$
5579-89-5
  -INDIGO-01081615412D

 26 26  0  0  0  0  0  0  0  0999 V2000
   -5.8633   -0.8688    0.0000 O   0  0  0  0  0  0  0  0  0  0  0  0
   -7.4285   -1.2013    0.0000 C   0  0  0  0  0  0  0  0  0  0  0  0
   -8.6175   -0.1308    0.0000 N   0  0  0  0  0  0  0  0  0  0  0  0
   -8.2848    1.4342    0.0000 O   0  0  0  0  0  0  0  0  0  0  0  0
  -10.1391   -0.6252    0.0000 O   0  0  0  0  0  0  0  0  0  0  0  0
   -7.5957   -2.7926    0.0000 C   0  0  0  0  0  0  0  0  0  0  0  0
   -8.9814   -3.5926    0.0000 H   0  0  0  0  0  0  0  0  0  0  0  0
   -6.1340   -3.4434    0.0000 C   0  0  0  0  0  0  0  0  0  0  0  0
   -5.8013   -5.0084    0.0000 H   0  0  0  0  0  0  0  0  0  0  0  0
   -5.0635   -2.2544    0.0000 C   0  0  0  0  0  0  0  0  0  0  0  0
   -3.4722   -2.4216    0.0000 C   0  0  0  0  0  0  0  0  0  0  0  0
   -2.5316   -1.1272    0.0000 N   0  0  0  0  0  0  0  0  0  0  0  0
   -0.9404   -1.2945    0.0000 N   0  0  0  0  0  0  0  0  0  0  0  0
   -0.2896   -2.7561    0.0000 C   0  0  0  0  0  0  0  0  0  0  0  0
    1.3016   -2.9233    0.0000 N   0  0  0  0  0  0  0  0  0  0  0  0
    1.9524   -4.3850    0.0000 H   0  0  0  0  0  0  0  0  0  0  0  0
    2.2421   -1.6289    0.0000 H   0  0  0  0  0  0  0  0  0  0  0  0
   -1.2302   -4.0505    0.0000 O   0  0  0  0  0  0  0  0  0  0  0  0
    0.0000    0.0000    0.0000 C   0  0  0  0  0  0  0  0  0  0  0  0
    0.9405    1.2944    0.0000 C   0  0  0  0  0  0  0  0  0  0  0  0
    1.8809    2.5888    0.0000 H   0  0  0  0  0  0  0  0  0  0  0  0
    2.5317    1.1271    0.0000 H   0  0  0  0  0  0  0  0  0  0  0  0
    0.2897    2.7561    0.0000 H   0  0  0  0  0  0  0  0  0  0  0  0
    1.2945   -0.9405    0.0000 H   0  0  0  0  0  0  0  0  0  0  0  0
   -1.2944    0.9404    0.0000 H   0  0  0  0  0  0  0  0  0  0  0  0
   -2.8214   -3.8832    0.0000 H   0  0  0  0  0  0  0  0  0  0  0  0
  1  2  4  0  0  0  0
  2  3  1  0  0  0  0
  3  4  2  0  0  0  0
  3  5  1  0  0  0  0
  2  6  4  0  0  0  0
  6  7  1  0  0  0  0
  6  8  4  0  0  0  0
  8  9  1  0  0  0  0
  8 10  4  0  0  0  0
 10  1  4  0  0  0  0
 10 11  1  0  0  0  0
 11 12  2  0  0  0  0
 12 13  1  0  0  0  0
 13 14  1  0  0  0  0
 14 15  1  0  0  0  0
 15 16  1  0  0  0  0
 15 17  1  0  0  0  0
 14 18  2  0  0  0  0
 13 19  1  0  0  0  0
 19 20  1  0  0  0  0
 20 21  1  0  0  0  0
 20 22  1  0  0  0  0
 20 23  1  0  0  0  0
 19 24  1  0  0  0  0
 19 25  1  0  0  0  0
 11 26  1  0  0  0  0
M  CHG  2   3   1   5  -1
M  END
> <CAS>
5579-89-5

> <NAME>
Hydrazinecarboxamide, 1-ethyl-2-[(5-nitro-2-fura

> <preferred_name>
Nifursemizone

> <iupac>
1-ethyl-1-[(5-nitrofuran-2-yl)methylideneamino]urea

> <SMILES>
CCN(/N=C/c1ccc(o1)[N+]([O-])=O)C(N)=O

> <Canonical_QSARr>
CCN(N=Cc1ccc(o1)[N+]([O-])=O)C(N)=O

> <InChI_Code_QSARr>
InChI=1S/C8H10N4O4/c1-2-11(8(9)13)10-5-6-3-4-7(16-6)12(14)15/h3-5H,2H2,1H3,(H2,9,13)/b10-5+

> <InChI Key_QSARr>
JGPNCLKRECLYTO-BJMVGYQFSA-N

> <Salt_Solvent>
?

> <WS Temperature>
25

> <WS Reference>
BEILSTEIN

> <dsstox_substance_id>
DTXSID30204357

> <LogMolar>
-2.9395

$$$$
5611-51-8
  -INDIGO-01081615412D

 79 83  0  0  0  0  0  0  0  0999 V2000
   -1.1890    1.0706    0.0000 C   0  0  0  0  0  0  0  0  0  0  0  0
   -1.8399   -0.3910    0.0000 C   0  0  0  0  0  0  0  0  0  0  0  0
   -2.3613   -0.8292    0.0000 O   0  0  0  0  0  0  0  0  0  0  0  0
   -3.4311   -0.5583    0.0000 C   0  0  0  0  0  0  0  0  0  0  0  0
   -5.0224   -0.7255    0.0000 O   0  0  0  0  0  0  0  0  0  0  0  0
   -5.6730   -2.1873    0.0000 C   0  0  0  0  0  0  0  0  0  0  0  0
   -7.2642   -2.3544    0.0000 C   0  0  0  0  0  0  0  0  0  0  0  0
   -8.8555   -2.5217    0.0000 C   0  0  0  0  0  0  0  0  0  0  0  0
  -10.4467   -2.6889    0.0000 C   0  0  0  0  0  0  0  0  0  0  0  0
  -12.0380   -2.8562    0.0000 H   0  0  0  0  0  0  0  0  0  0  0  0
  -11.0977   -4.1507    0.0000 H   0  0  0  0  0  0  0  0  0  0  0  0
  -11.3871   -1.3946    0.0000 H   0  0  0  0  0  0  0  0  0  0  0  0
   -8.6884   -4.1130    0.0000 C   0  0  0  0  0  0  0  0  0  0  0  0
   -8.5210   -5.7043    0.0000 H   0  0  0  0  0  0  0  0  0  0  0  0
   -9.9828   -5.0535    0.0000 H   0  0  0  0  0  0  0  0  0  0  0  0
   -7.2267   -4.7637    0.0000 H   0  0  0  0  0  0  0  0  0  0  0  0
   -9.0229   -0.9306    0.0000 C   0  0  0  0  0  0  0  0  0  0  0  0
   -9.1900    0.6607    0.0000 H   0  0  0  0  0  0  0  0  0  0  0  0
  -10.4843   -0.2798    0.0000 H   0  0  0  0  0  0  0  0  0  0  0  0
   -7.7282    0.0100    0.0000 H   0  0  0  0  0  0  0  0  0  0  0  0
   -7.0972   -3.9457    0.0000 H   0  0  0  0  0  0  0  0  0  0  0  0
   -7.4316   -0.7633    0.0000 H   0  0  0  0  0  0  0  0  0  0  0  0
   -4.7326   -3.4816    0.0000 O   0  0  0  0  0  0  0  0  0  0  0  0
   -3.2637   -2.1496    0.0000 H   0  0  0  0  0  0  0  0  0  0  0  0
   -3.5982    1.0328    0.0000 H   0  0  0  0  0  0  0  0  0  0  0  0
   -2.7802    1.2379    0.0000 O   0  0  0  0  0  0  0  0  0  0  0  0
   -3.1128    2.8029    0.0000 C   0  0  0  0  0  0  0  0  0  0  0  0
   -3.7637    4.2646    0.0000 C   0  0  0  0  0  0  0  0  0  0  0  0
   -4.4146    5.7262    0.0000 H   0  0  0  0  0  0  0  0  0  0  0  0
   -5.3550    4.4317    0.0000 H   0  0  0  0  0  0  0  0  0  0  0  0
   -2.8234    5.5590    0.0000 H   0  0  0  0  0  0  0  0  0  0  0  0
   -4.6345    2.3085    0.0000 C   0  0  0  0  0  0  0  0  0  0  0  0
   -6.1562    1.8141    0.0000 H   0  0  0  0  0  0  0  0  0  0  0  0
   -5.8236    3.3791    0.0000 H   0  0  0  0  0  0  0  0  0  0  0  0
   -4.9674    0.7434    0.0000 H   0  0  0  0  0  0  0  0  0  0  0  0
   -1.7271    3.6030    0.0000 O   0  0  0  0  0  0  0  0  0  0  0  0
   -0.5384    2.5324    0.0000 C   0  0  0  0  0  0  0  0  0  0  0  0
    0.1126    3.9939    0.0000 H   0  0  0  0  0  0  0  0  0  0  0  0
    1.0529    2.3651    0.0000 C   0  0  0  0  0  0  0  0  0  0  0  0
    2.5910    2.8060    0.0000 H   0  0  0  0  0  0  0  0  0  0  0  0
    1.0529    3.9651    0.0000 H   0  0  0  0  0  0  0  0  0  0  0  0
    1.3855    0.8001    0.0000 C   0  0  0  0  0  0  0  0  0  0  0  0
    2.7712   -0.0000    0.0000 C   0  0  0  0  0  0  0  0  0  0  0  0
    4.1568    0.8001    0.0000 C   0  0  0  0  0  0  0  0  0  0  0  0
    5.1854    2.0257    0.0000 H   0  0  0  0  0  0  0  0  0  0  0  0
    3.3569    2.1856    0.0000 H   0  0  0  0  0  0  0  0  0  0  0  0
    5.5425   -0.0000    0.0000 C   0  0  0  0  0  0  0  0  0  0  0  0
    7.1182   -0.2778    0.0000 H   0  0  0  0  0  0  0  0  0  0  0  0
    6.0897    1.5036    0.0000 H   0  0  0  0  0  0  0  0  0  0  0  0
    5.5425   -1.6000    0.0000 C   0  0  0  0  0  0  0  0  0  0  0  0
    6.9282   -2.3999    0.0000 C   0  0  0  0  0  0  0  0  0  0  0  0
    6.9282   -3.9999    0.0000 C   0  0  0  0  0  0  0  0  0  0  0  0
    8.3138   -4.8000    0.0000 O   0  0  0  0  0  0  0  0  0  0  0  0
    5.5425   -4.8000    0.0000 C   0  0  0  0  0  0  0  0  0  0  0  0
    4.1568   -3.9999    0.0000 C   0  0  0  0  0  0  0  0  0  0  0  0
    2.7712   -4.8000    0.0000 H   0  0  0  0  0  0  0  0  0  0  0  0
    4.1568   -2.3999    0.0000 C   0  0  0  0  0  0  0  0  0  0  0  0
    3.5556   -2.6188    0.0000 C   0  0  0  0  0  0  0  0  0  0  0  0
    2.7712   -3.2000    0.0000 H   0  0  0  0  0  0  0  0  0  0  0  0
    3.2777   -4.1946    0.0000 H   0  0  0  0  0  0  0  0  0  0  0  0
    4.7813   -3.6474    0.0000 H   0  0  0  0  0  0  0  0  0  0  0  0
    2.7712   -1.6000    0.0000 C   0  0  0  0  0  0  0  0  0  0  0  0
    2.3640   -2.4871    0.0000 F   0  0  0  0  0  0  0  0  0  0  0  0
    1.3855   -2.3999    0.0000 C   0  0  0  0  0  0  0  0  0  0  0  0
    0.3573   -3.6256    0.0000 O   0  0  0  0  0  0  0  0  0  0  0  0
    0.9045   -5.1292    0.0000 H   0  0  0  0  0  0  0  0  0  0  0  0
    0.0001   -1.6000    0.0000 C   0  0  0  0  0  0  0  0  0  0  0  0
   -0.6337   -1.8496    0.0000 H   0  0  0  0  0  0  0  0  0  0  0  0
   -0.5474   -3.1034    0.0000 H   0  0  0  0  0  0  0  0  0  0  0  0
    0.0001   -0.0000    0.0000 C   0  0  0  0  0  0  0  0  0  0  0  0
   -1.4616   -0.6508    0.0000 C   0  0  0  0  0  0  0  0  0  0  0  0
   -1.5756   -1.3221    0.0000 H   0  0  0  0  0  0  0  0  0  0  0  0
   -0.9995   -1.5012    0.0000 H   0  0  0  0  0  0  0  0  0  0  0  0
   -2.7560    0.2897    0.0000 H   0  0  0  0  0  0  0  0  0  0  0  0
    2.4140   -3.6256    0.0000 H   0  0  0  0  0  0  0  0  0  0  0  0
    5.5425   -6.4000    0.0000 H   0  0  0  0  0  0  0  0  0  0  0  0
    8.3138   -1.6000    0.0000 H   0  0  0  0  0  0  0  0  0  0  0  0
    2.7712    1.6000    0.0000 H   0  0  0  0  0  0  0  0  0  0  0  0
    2.2805    2.1264    0.0000 H   0  0  0  0  0  0  0  0  0  0  0  0
  1  2  1  0  0  0  0
  2  3  2  0  0  0  0
  2  4  1  0  0  0  0
  4  5  1  0  0  0  0
  5  6  1  0  0  0  0
  6  7  1  0  0  0  0
  7  8  1  0  0  0  0
  8  9  1  0  0  0  0
  9 10  1  0  0  0  0
  9 11  1  0  0  0  0
  9 12  1  0  0  0  0
  8 13  1  0  0  0  0
 13 14  1  0  0  0  0
 13 15  1  0  0  0  0
 13 16  1  0  0  0  0
  8 17  1  0  0  0  0
 17 18  1  0  0  0  0
 17 19  1  0  0  0  0
 17 20  1  0  0  0  0
  7 21  1  0  0  0  0
  7 22  1  0  0  0  0
  6 23  2  0  0  0  0
  4 24  1  0  0  0  0
  4 25  1  0  0  0  0
  1 26  1  0  0  0  0
 26 27  1  0  0  0  0
 27 28  1  0  0  0  0
 28 29  1  0  0  0  0
 28 30  1  0  0  0  0
 28 31  1  0  0  0  0
 27 32  1  0  0  0  0
 32 33  1  0  0  0  0
 32 34  1  0  0  0  0
 32 35  1  0  0  0  0
 27 36  1  0  0  0  0
 36 37  1  0  0  0  0
 37  1  1  0  0  0  0
 37 38  1  0  0  0  0
 37 39  1  0  0  0  0
 39 40  1  0  0  0  0
 39 41  1  0  0  0  0
 39 42  1  0  0  0  0
 42 43  1  0  0  0  0
 43 44  1  0  0  0  0
 44 45  1  0  0  0  0
 44 46  1  0  0  0  0
 44 47  1  0  0  0  0
 47 48  1  0  0  0  0
 47 49  1  0  0  0  0
 47 50  1  0  0  0  0
 50 51  2  0  0  0  0
 51 52  1  0  0  0  0
 52 53  2  0  0  0  0
 52 54  1  0  0  0  0
 54 55  2  0  0  0  0
 55 56  1  0  0  0  0
 55 57  1  0  0  0  0
 57 50  1  0  0  0  0
 57 58  1  0  0  0  0
 58 59  1  0  0  0  0
 58 60  1  0  0  0  0
 58 61  1  0  0  0  0
 57 62  1  0  0  0  0
 62 43  1  0  0  0  0
 62 63  1  0  0  0  0
 62 64  1  0  0  0  0
 64 65  1  0  0  0  0
 65 66  1  0  0  0  0
 64 67  1  0  0  0  0
 67 68  1  0  0  0  0
 67 69  1  0  0  0  0
 67 70  1  0  0  0  0
 70  1  1  0  0  0  0
 70 42  1  0  0  0  0
 70 71  1  0  0  0  0
 71 72  1  0  0  0  0
 71 73  1  0  0  0  0
 71 74  1  0  0  0  0
 64 75  1  0  0  0  0
 54 76  1  0  0  0  0
 51 77  1  0  0  0  0
 43 78  1  0  0  0  0
 42 79  1  0  0  0  0
M  END
> <CAS>
5611-51-8

> <NAME>
TRIAMCINOLONE HEXACETONIDE

> <preferred_name>
Triamcinolone hexacetonide

> <iupac>
2-[(4aS,4bR,5S,6aS,6bS,9aR,10aS,10bS)-4b-fluoro-5-hydroxy-4a,6a,8,8-tetramethyl-2-oxo-2,4a,4b,5,6,6a,9a,10,10a,10b,11,12-dodecahydro-6bH-naphtho[2',1':4,5]indeno[1,2-d][1,3]dioxol-6b-yl]-2-oxoethyl 3,3-dimethylbutanoate

> <SMILES>
CC(C)(C)CC(=O)OCC(=O)[C@@]12OC(C)(C)O[C@@H]1C[C@H]1[C@@H]3CCC4=CC(=O)C=C[C@]4(C)[C@@]3(F)[C@@H](O)C[C@]21C

> <Canonical_QSARr>
CC(C)(C)CC(=O)OCC(=O)C12OC(C)(C)OC1CC1C3CCC4=CC(=O)C=CC4(C)C3(F)C(O)CC21C

> <InChI_Code_QSARr>
InChI=1S/C30H41FO7/c1-25(2,3)15-24(35)36-16-22(34)30-23(37-26(4,5)38-30)13-20-19-9-8-17-12-18(32)10-11-27(17,6)29(19,31)21(33)14-28(20,30)7/h10-12,19-21,23,33H,8-9,13-16H2,1-7H3

> <InChI Key_QSARr>
TZIZWYVVGLXXFV-UHFFFAOYSA-N

> <Salt_Solvent>
?

> <WS Temperature>
25

> <WS Reference>
MERCK INDEX (1989)

> <dsstox_substance_id>
DTXSID0048634

> <LogMolar>
-5.1244

$$$$
5625-46-7
  -INDIGO-01081615412D

 20 20  0  0  0  0  0  0  0  0999 V2000
   -3.2000    2.7713    0.0000 O   0  0  0  0  0  0  0  0  0  0  0  0
   -2.4000    1.3856    0.0000 C   0  0  0  0  0  0  0  0  0  0  0  0
   -3.2000   -0.0000    0.0000 C   0  0  0  0  0  0  0  0  0  0  0  0
   -4.4257    1.0285    0.0000 C   0  0  0  0  0  0  0  0  0  0  0  0
   -5.6513    2.0569    0.0000 H   0  0  0  0  0  0  0  0  0  0  0  0
   -5.9292    0.4812    0.0000 H   0  0  0  0  0  0  0  0  0  0  0  0
   -4.1478    2.6042    0.0000 H   0  0  0  0  0  0  0  0  0  0  0  0
   -4.4257   -1.0285    0.0000 H   0  0  0  0  0  0  0  0  0  0  0  0
   -2.4000   -1.3856    0.0000 N   0  0  0  0  0  0  0  0  0  0  0  0
   -3.2000   -2.7713    0.0000 H   0  0  0  0  0  0  0  0  0  0  0  0
   -0.8000   -1.3856    0.0000 C   0  0  0  0  0  0  0  0  0  0  0  0
    0.0000   -2.7713    0.0000 O   0  0  0  0  0  0  0  0  0  0  0  0
    0.0000    0.0000    0.0000 C   0  0  0  0  0  0  0  0  0  0  0  0
    1.2257   -1.0285    0.0000 C   0  0  0  0  0  0  0  0  0  0  0  0
    2.4513   -2.0569    0.0000 H   0  0  0  0  0  0  0  0  0  0  0  0
    2.7292   -0.4813    0.0000 H   0  0  0  0  0  0  0  0  0  0  0  0
    0.9478   -2.6042    0.0000 H   0  0  0  0  0  0  0  0  0  0  0  0
    1.2257    1.0285    0.0000 H   0  0  0  0  0  0  0  0  0  0  0  0
   -0.8000    1.3856    0.0000 N   0  0  0  0  0  0  0  0  0  0  0  0
    0.0000    2.7713    0.0000 H   0  0  0  0  0  0  0  0  0  0  0  0
  1  2  2  0  0  0  0
  2  3  1  0  0  0  0
  3  4  1  0  0  0  0
  4  5  1  0  0  0  0
  4  6  1  0  0  0  0
  4  7  1  0  0  0  0
  3  8  1  0  0  0  0
  3  9  1  0  0  0  0
  9 10  1  0  0  0  0
  9 11  1  0  0  0  0
 11 12  2  0  0  0  0
 11 13  1  0  0  0  0
 13 14  1  0  0  0  0
 14 15  1  0  0  0  0
 14 16  1  0  0  0  0
 14 17  1  0  0  0  0
 13 18  1  0  0  0  0
 13 19  1  0  0  0  0
 19  2  1  0  0  0  0
 19 20  1  0  0  0  0
M  END
> <CAS>
5625-46-7

> <NAME>
3,6-dimethylpiperazine-2,5-dione

> <preferred_name>
(3R,6R)-3,6-dimethylpiperazine-2,5-dione

> <iupac>
C6H10N2O2

> <SMILES>
C[C@H]1NC(=O)[C@@H](C)NC1=O

> <Canonical_QSARr>
CC1NC(=O)C(C)NC1=O

> <InChI_Code_QSARr>
InChI=1S/C6H10N2O2/c1-3-5(9)8-4(2)6(10)7-3/h3-4H,1-2H3,(H,7,10)(H,8,9)

> <InChI Key_QSARr>
WWISPHBAYBECQZ-UHFFFAOYSA-N

> <Salt_Solvent>
?

> <WS Temperature>


> <WS Reference>
BEILSTEIN

> <dsstox_substance_id>
DTXSID50350289

> <LogMolar>
-0.1528

$$$$
5648-29-3
  -INDIGO-01081615412D

 23 22  0  0  0  0  0  0  0  0999 V2000
    0.0000    0.0000    0.0000 C   0  0  0  0  0  0  0  0  0  0  0  0
   -1.3855    0.8000    0.0000 O   0  0  0  0  0  0  0  0  0  0  0  0
   -2.7713    0.0000    0.0000 C   0  0  0  0  0  0  0  0  0  0  0  0
   -4.1568   -0.8000    0.0000 O   0  0  0  0  0  0  0  0  0  0  0  0
   -5.5426    0.0000    0.0000 C   0  0  0  0  0  0  0  0  0  0  0  0
   -6.9281    0.8000    0.0000 O   0  0  0  0  0  0  0  0  0  0  0  0
   -8.3138    0.0000    0.0000 C   0  0  0  0  0  0  0  0  0  0  0  0
   -9.6994   -0.8000    0.0000 C   0  0  0  0  0  0  0  0  0  0  0  0
  -11.0851   -1.6000    0.0000 H   0  0  0  0  0  0  0  0  0  0  0  0
  -11.0851   -0.0000    0.0000 H   0  0  0  0  0  0  0  0  0  0  0  0
   -9.6994   -2.4000    0.0000 H   0  0  0  0  0  0  0  0  0  0  0  0
   -9.1139    1.3856    0.0000 H   0  0  0  0  0  0  0  0  0  0  0  0
   -7.5138   -1.3856    0.0000 H   0  0  0  0  0  0  0  0  0  0  0  0
   -6.3426   -1.3856    0.0000 H   0  0  0  0  0  0  0  0  0  0  0  0
   -4.7425    1.3856    0.0000 H   0  0  0  0  0  0  0  0  0  0  0  0
   -3.5714    1.3856    0.0000 H   0  0  0  0  0  0  0  0  0  0  0  0
   -1.9712   -1.3856    0.0000 H   0  0  0  0  0  0  0  0  0  0  0  0
    1.3857   -0.8000    0.0000 C   0  0  0  0  0  0  0  0  0  0  0  0
    2.7713   -1.6000    0.0000 H   0  0  0  0  0  0  0  0  0  0  0  0
    1.3857   -2.4000    0.0000 H   0  0  0  0  0  0  0  0  0  0  0  0
    2.7713    0.0000    0.0000 H   0  0  0  0  0  0  0  0  0  0  0  0
    0.8001    1.3856    0.0000 H   0  0  0  0  0  0  0  0  0  0  0  0
   -0.8001   -1.3856    0.0000 H   0  0  0  0  0  0  0  0  0  0  0  0
  1  2  1  0  0  0  0
  2  3  1  0  0  0  0
  3  4  1  0  0  0  0
  4  5  1  0  0  0  0
  5  6  1  0  0  0  0
  6  7  1  0  0  0  0
  7  8  1  0  0  0  0
  8  9  1  0  0  0  0
  8 10  1  0  0  0  0
  8 11  1  0  0  0  0
  7 12  1  0  0  0  0
  7 13  1  0  0  0  0
  5 14  1  0  0  0  0
  5 15  1  0  0  0  0
  3 16  1  0  0  0  0
  3 17  1  0  0  0  0
  1 18  1  0  0  0  0
 18 19  1  0  0  0  0
 18 20  1  0  0  0  0
 18 21  1  0  0  0  0
  1 22  1  0  0  0  0
  1 23  1  0  0  0  0
M  END
> <CAS>
5648-29-3

> <NAME>
Ethane, 1,1'-[oxybis(methyleneoxy)]bis-

> <preferred_name>


> <iupac>


> <SMILES>
CCOCOCOCC

> <Canonical_QSARr>
CCOCOCOCC

> <InChI_Code_QSARr>
InChI=1S/C6H14O3/c1-3-7-5-9-6-8-4-2/h3-6H2,1-2H3

> <InChI Key_QSARr>
ANPYLYUCGAFKNQ-UHFFFAOYSA-N

> <Salt_Solvent>
?

> <WS Temperature>


> <WS Reference>
BEILSTEIN

> <dsstox_substance_id>


> <LogMolar>
-0.1277

$$$$
5774-26-5
  -INDIGO-01081615412D

 24 23  0  0  0  0  0  0  0  0999 V2000
    0.0001    0.0000    0.0000 C   0  0  0  0  0  0  0  0  0  0  0  0
    0.8000    1.3857    0.0000 O   0  0  0  0  0  0  0  0  0  0  0  0
    0.0001    2.7713    0.0000 C   0  0  0  0  0  0  0  0  0  0  0  0
   -0.8001    4.1570    0.0000 C   0  0  0  0  0  0  0  0  0  0  0  0
   -1.6001    5.5426    0.0000 H   0  0  0  0  0  0  0  0  0  0  0  0
    0.0001    5.5426    0.0000 H   0  0  0  0  0  0  0  0  0  0  0  0
   -2.4000    4.1570    0.0000 H   0  0  0  0  0  0  0  0  0  0  0  0
    1.3857    3.5713    0.0000 H   0  0  0  0  0  0  0  0  0  0  0  0
   -1.3856    1.9713    0.0000 H   0  0  0  0  0  0  0  0  0  0  0  0
    1.3857   -0.8000    0.0000 O   0  0  0  0  0  0  0  0  0  0  0  0
    2.7713    0.0000    0.0000 C   0  0  0  0  0  0  0  0  0  0  0  0
    4.1569    0.8000    0.0000 C   0  0  0  0  0  0  0  0  0  0  0  0
    5.5426    1.6000    0.0000 H   0  0  0  0  0  0  0  0  0  0  0  0
    5.5426    0.0000    0.0000 H   0  0  0  0  0  0  0  0  0  0  0  0
    4.1569    2.4000    0.0000 H   0  0  0  0  0  0  0  0  0  0  0  0
    3.5713   -1.3856    0.0000 H   0  0  0  0  0  0  0  0  0  0  0  0
    1.9713    1.3856    0.0000 H   0  0  0  0  0  0  0  0  0  0  0  0
   -0.8001   -1.3856    0.0000 C   0  0  0  0  0  0  0  0  0  0  0  0
    0.0001   -2.7713    0.0000 O   0  0  0  0  0  0  0  0  0  0  0  0
   -2.4000   -1.3856    0.0000 C   0  0  0  0  0  0  0  0  0  0  0  0
   -4.0000   -1.3856    0.0000 H   0  0  0  0  0  0  0  0  0  0  0  0
   -3.2000   -2.7713    0.0000 H   0  0  0  0  0  0  0  0  0  0  0  0
   -3.2000    0.0000    0.0000 H   0  0  0  0  0  0  0  0  0  0  0  0
   -1.3856    0.8000    0.0000 H   0  0  0  0  0  0  0  0  0  0  0  0
  1  2  1  0  0  0  0
  2  3  1  0  0  0  0
  3  4  1  0  0  0  0
  4  5  1  0  0  0  0
  4  6  1  0  0  0  0
  4  7  1  0  0  0  0
  3  8  1  0  0  0  0
  3  9  1  0  0  0  0
  1 10  1  0  0  0  0
 10 11  1  0  0  0  0
 11 12  1  0  0  0  0
 12 13  1  0  0  0  0
 12 14  1  0  0  0  0
 12 15  1  0  0  0  0
 11 16  1  0  0  0  0
 11 17  1  0  0  0  0
  1 18  1  0  0  0  0
 18 19  2  0  0  0  0
 18 20  1  0  0  0  0
 20 21  1  0  0  0  0
 20 22  1  0  0  0  0
 20 23  1  0  0  0  0
  1 24  1  0  0  0  0
M  END
> <CAS>
5774-26-5

> <NAME>
2-Propanone, 1,1-diethoxy-

> <preferred_name>


> <iupac>


> <SMILES>
CC(=O)C(OCC)OCC

> <Canonical_QSARr>
CC(=O)C(OCC)OCC

> <InChI_Code_QSARr>
InChI=1S/C7H14O3/c1-4-9-7(6(3)8)10-5-2/h7H,4-5H2,1-3H3

> <InChI Key_QSARr>
SDMOBEHDSJVJHU-UHFFFAOYSA-N

> <Salt_Solvent>
?

> <WS Temperature>


> <WS Reference>
BEILSTEIN

> <dsstox_substance_id>


> <LogMolar>
-0.2059

$$$$
5915-41-3
  -INDIGO-01081615412D

 31 31  0  0  0  0  0  0  0  0999 V2000
   -2.7713    1.6000    0.0000 N   0  0  0  1  0  0  0  0  0  0  0  0
   -4.1570    2.4000    0.0000 C   0  0  0  0  0  0  0  0  0  0  0  0
   -4.1570    4.0000    0.0000 Cl  0  0  0  0  0  0  0  0  0  0  0  0
   -5.5426    1.6000    0.0000 N   0  0  0  1  0  0  0  0  0  0  0  0
   -5.5426   -0.0001    0.0000 C   0  0  0  0  0  0  0  0  0  0  0  0
   -6.9281   -0.8000    0.0000 N   0  0  0  0  0  0  0  0  0  0  0  0
   -8.3138   -0.0001    0.0000 C   0  0  0  0  0  0  0  0  0  0  0  0
   -9.6996    0.8000    0.0000 C   0  0  0  0  0  0  0  0  0  0  0  0
  -11.0851    1.6000    0.0000 H   0  0  0  0  0  0  0  0  0  0  0  0
  -11.0851   -0.0001    0.0000 H   0  0  0  0  0  0  0  0  0  0  0  0
   -9.6996    2.4000    0.0000 H   0  0  0  0  0  0  0  0  0  0  0  0
   -9.1139   -1.3856    0.0000 H   0  0  0  0  0  0  0  0  0  0  0  0
   -7.5138    1.3856    0.0000 H   0  0  0  0  0  0  0  0  0  0  0  0
   -6.9281   -2.4000    0.0000 H   0  0  0  0  0  0  0  0  0  0  0  0
   -4.1570   -0.8000    0.0000 N   0  0  0  1  0  0  0  0  0  0  0  0
   -2.7713   -0.0001    0.0000 C   0  0  0  0  0  0  0  0  0  0  0  0
   -1.3855   -0.8000    0.0000 N   0  0  0  0  0  0  0  0  0  0  0  0
    0.0000    0.0001    0.0000 C   0  0  0  0  0  0  0  0  0  0  0  0
    1.3857    0.8000    0.0000 C   0  0  0  0  0  0  0  0  0  0  0  0
    2.7713    1.6000    0.0000 H   0  0  0  0  0  0  0  0  0  0  0  0
    2.7713    0.0001    0.0000 H   0  0  0  0  0  0  0  0  0  0  0  0
    1.6636    2.3757    0.0000 H   0  0  0  0  0  0  0  0  0  0  0  0
    0.8001   -1.3856    0.0000 C   0  0  0  0  0  0  0  0  0  0  0  0
    1.5999   -2.7713    0.0000 H   0  0  0  0  0  0  0  0  0  0  0  0
    2.4000   -1.3856    0.0000 H   0  0  0  0  0  0  0  0  0  0  0  0
    0.0000   -2.7713    0.0000 H   0  0  0  0  0  0  0  0  0  0  0  0
   -0.8001    1.3856    0.0000 C   0  0  0  0  0  0  0  0  0  0  0  0
   -1.8285    2.6113    0.0000 H   0  0  0  0  0  0  0  0  0  0  0  0
   -0.2527    2.8892    0.0000 H   0  0  0  0  0  0  0  0  0  0  0  0
    0.7034    1.9329    0.0000 H   0  0  0  0  0  0  0  0  0  0  0  0
   -1.3855   -2.4000    0.0000 H   0  0  0  0  0  0  0  0  0  0  0  0
  1  2  4  0  0  0  0
  2  3  1  0  0  0  0
  2  4  4  0  0  0  0
  4  5  4  0  0  0  0
  5  6  1  0  0  0  0
  6  7  1  0  0  0  0
  7  8  1  0  0  0  0
  8  9  1  0  0  0  0
  8 10  1  0  0  0  0
  8 11  1  0  0  0  0
  7 12  1  0  0  0  0
  7 13  1  0  0  0  0
  6 14  1  0  0  0  0
  5 15  4  0  0  0  0
 15 16  4  0  0  0  0
 16  1  4  0  0  0  0
 16 17  1  0  0  0  0
 17 18  1  0  0  0  0
 18 19  1  0  0  0  0
 19 20  1  0  0  0  0
 19 21  1  0  0  0  0
 19 22  1  0  0  0  0
 18 23  1  0  0  0  0
 23 24  1  0  0  0  0
 23 25  1  0  0  0  0
 23 26  1  0  0  0  0
 18 27  1  0  0  0  0
 27 28  1  0  0  0  0
 27 29  1  0  0  0  0
 27 30  1  0  0  0  0
 17 31  1  0  0  0  0
M  END
> <CAS>
5915-41-3

> <NAME>
TERBUTHYLAZINE

> <preferred_name>
Terbuthylazine

> <iupac>
N-tert-butyl-6-chloro-N'-ethyl-1,3,5-triazine-2,4-diamine

> <SMILES>
CCNc1[n]c(Cl)[n]c(NC(C)(C)C)[n]1

> <Canonical_QSARr>
CCNc1[n]c(Cl)[n]c(NC(C)(C)C)[n]1

> <InChI_Code_QSARr>
InChI=1S/C9H16ClN5/c1-5-11-7-12-6(10)13-8(14-7)15-9(2,3)4/h5H2,1-4H3,(H2,11,12,13,14,15)

> <InChI Key_QSARr>
FZXISNSWEXTPMF-UHFFFAOYSA-N

> <Salt_Solvent>
?

> <WS Temperature>
20

> <WS Reference>
TOMLIN,C (1997); pH 7

> <dsstox_substance_id>
DTXSID4027608

> <LogMolar>
-4.4024

$$$$
6006-58-2
  -INDIGO-01081615412D

 43 42  0  0  0  0  0  0  0  0999 V2000
    4.1570   -2.3999    0.0000 S   0  0  0  0  0  0  0  0  0  0  0  0
    5.5426   -1.6000    0.0000 C   0  0  0  0  0  0  0  0  0  0  0  0
    6.9282   -0.7999    0.0000 C   0  0  0  0  0  0  0  0  0  0  0  0
    8.3138    0.0000    0.0000 N   0  0  0  0  0  0  0  0  0  0  0  0
    9.6996   -0.7999    0.0000 C   0  0  0  0  0  0  0  0  0  0  0  0
   11.0852   -1.6000    0.0000 C   0  0  0  0  0  0  0  0  0  0  0  0
   12.4708   -2.3999    0.0000 H   0  0  0  0  0  0  0  0  0  0  0  0
   12.4708   -0.7999    0.0000 H   0  0  0  0  0  0  0  0  0  0  0  0
   11.0852   -3.2000    0.0000 H   0  0  0  0  0  0  0  0  0  0  0  0
   10.4996    0.5857    0.0000 H   0  0  0  0  0  0  0  0  0  0  0  0
    8.8994   -2.1856    0.0000 H   0  0  0  0  0  0  0  0  0  0  0  0
    8.3138    1.6000    0.0000 C   0  0  0  0  0  0  0  0  0  0  0  0
    8.3138    3.2000    0.0000 C   0  0  0  0  0  0  0  0  0  0  0  0
    8.3138    4.8000    0.0000 H   0  0  0  0  0  0  0  0  0  0  0  0
    9.6996    4.0001    0.0000 H   0  0  0  0  0  0  0  0  0  0  0  0
    6.9282    4.0001    0.0000 H   0  0  0  0  0  0  0  0  0  0  0  0
    9.9138    1.6000    0.0000 H   0  0  0  0  0  0  0  0  0  0  0  0
    6.7138    1.6000    0.0000 H   0  0  0  0  0  0  0  0  0  0  0  0
    7.7282   -2.1856    0.0000 H   0  0  0  0  0  0  0  0  0  0  0  0
    6.1282    0.5856    0.0000 H   0  0  0  0  0  0  0  0  0  0  0  0
    6.3426   -2.9856    0.0000 H   0  0  0  0  0  0  0  0  0  0  0  0
    4.7426   -0.2144    0.0000 H   0  0  0  0  0  0  0  0  0  0  0  0
    2.7712   -1.6000    0.0000 C   0  0  0  0  0  0  0  0  0  0  0  0
    1.3856   -0.7999    0.0000 C   0  0  0  0  0  0  0  0  0  0  0  0
    0.0001    0.0000    0.0000 N   0  0  0  0  0  0  0  0  0  0  0  0
    0.0001    1.6000    0.0000 C   0  0  0  0  0  0  0  0  0  0  0  0
    0.0001    3.2000    0.0000 C   0  0  0  0  0  0  0  0  0  0  0  0
    0.0001    4.8000    0.0000 H   0  0  0  0  0  0  0  0  0  0  0  0
   -1.3858    3.9999    0.0000 H   0  0  0  0  0  0  0  0  0  0  0  0
    1.3856    3.9999    0.0000 H   0  0  0  0  0  0  0  0  0  0  0  0
   -1.5999    1.6000    0.0000 H   0  0  0  0  0  0  0  0  0  0  0  0
    1.6000    1.6000    0.0000 H   0  0  0  0  0  0  0  0  0  0  0  0
   -1.3855   -0.8001    0.0000 C   0  0  0  0  0  0  0  0  0  0  0  0
   -2.7713   -1.6000    0.0000 C   0  0  0  0  0  0  0  0  0  0  0  0
   -4.1569   -2.3999    0.0000 H   0  0  0  0  0  0  0  0  0  0  0  0
   -4.1569   -0.8001    0.0000 H   0  0  0  0  0  0  0  0  0  0  0  0
   -2.7713   -3.2000    0.0000 H   0  0  0  0  0  0  0  0  0  0  0  0
   -2.1858    0.5856    0.0000 H   0  0  0  0  0  0  0  0  0  0  0  0
   -0.5855   -2.1856    0.0000 H   0  0  0  0  0  0  0  0  0  0  0  0
    2.1856    0.5856    0.0000 H   0  0  0  0  0  0  0  0  0  0  0  0
    0.5857   -2.1856    0.0000 H   0  0  0  0  0  0  0  0  0  0  0  0
    3.5712   -0.2144    0.0000 H   0  0  0  0  0  0  0  0  0  0  0  0
    1.9712   -2.9856    0.0000 H   0  0  0  0  0  0  0  0  0  0  0  0
  1  2  1  0  0  0  0
  2  3  1  0  0  0  0
  3  4  1  0  0  0  0
  4  5  1  0  0  0  0
  5  6  1  0  0  0  0
  6  7  1  0  0  0  0
  6  8  1  0  0  0  0
  6  9  1  0  0  0  0
  5 10  1  0  0  0  0
  5 11  1  0  0  0  0
  4 12  1  0  0  0  0
 12 13  1  0  0  0  0
 13 14  1  0  0  0  0
 13 15  1  0  0  0  0
 13 16  1  0  0  0  0
 12 17  1  0  0  0  0
 12 18  1  0  0  0  0
  3 19  1  0  0  0  0
  3 20  1  0  0  0  0
  2 21  1  0  0  0  0
  2 22  1  0  0  0  0
  1 23  1  0  0  0  0
 23 24  1  0  0  0  0
 24 25  1  0  0  0  0
 25 26  1  0  0  0  0
 26 27  1  0  0  0  0
 27 28  1  0  0  0  0
 27 29  1  0  0  0  0
 27 30  1  0  0  0  0
 26 31  1  0  0  0  0
 26 32  1  0  0  0  0
 25 33  1  0  0  0  0
 33 34  1  0  0  0  0
 34 35  1  0  0  0  0
 34 36  1  0  0  0  0
 34 37  1  0  0  0  0
 33 38  1  0  0  0  0
 33 39  1  0  0  0  0
 24 40  1  0  0  0  0
 24 41  1  0  0  0  0
 23 42  1  0  0  0  0
 23 43  1  0  0  0  0
M  END
> <CAS>
6006-58-2

> <NAME>
Ethanamine, 2,2'-thiobis[N,N-diethyl-

> <preferred_name>
6006-58-2

> <iupac>
C12H28N2S

> <SMILES>
CCN(CCSCCN(CC)CC)CC

> <Canonical_QSARr>
CCN(CCSCCN(CC)CC)CC

> <InChI_Code_QSARr>
InChI=1S/C12H28N2S/c1-5-13(6-2)9-11-15-12-10-14(7-3)8-4/h5-12H2,1-4H3

> <InChI Key_QSARr>
LYFNBXZVKYDWNX-UHFFFAOYSA-N

> <Salt_Solvent>
?

> <WS Temperature>


> <WS Reference>
BEILSTEIN

> <dsstox_substance_id>
DTXSID80320415

> <LogMolar>
-2.3663

$$$$
6050-42-6
  -INDIGO-01081615412D

 24 25  0  0  0  0  0  0  0  0999 V2000
   -0.8000    1.3857    0.0000 C   0  0  0  0  0  0  0  0  0  0  0  0
   -2.4000    1.3857    0.0000 N   0  0  0  0  0  0  0  0  0  0  0  0
   -3.1999    2.7713    0.0000 C   0  0  0  0  0  0  0  0  0  0  0  0
   -4.0000    4.1570    0.0000 H   0  0  0  0  0  0  0  0  0  0  0  0
   -4.8000    2.7713    0.0000 H   0  0  0  0  0  0  0  0  0  0  0  0
   -2.4000    4.1570    0.0000 H   0  0  0  0  0  0  0  0  0  0  0  0
   -3.1999   -0.0000    0.0000 C   0  0  0  0  0  0  0  0  0  0  0  0
   -4.8000   -0.0000    0.0000 O   0  0  0  0  0  0  0  0  0  0  0  0
   -2.4000   -1.3856    0.0000 N   0  0  0  0  0  0  0  0  0  0  0  0
   -3.1999   -2.7713    0.0000 H   0  0  0  0  0  0  0  0  0  0  0  0
   -0.8000   -1.3856    0.0000 C   0  0  0  0  0  0  0  0  0  0  0  0
    0.0001   -2.7713    0.0000 O   0  0  0  0  0  0  0  0  0  0  0  0
    0.0001   -0.0000    0.0000 C   0  0  0  0  0  0  0  0  0  0  0  0
    1.5651    0.3327    0.0000 N   0  0  0  1  0  0  0  0  0  0  0  0
    2.7540   -0.7379    0.0000 C   0  0  0  0  0  0  0  0  0  0  0  0
    3.9431   -1.8086    0.0000 H   0  0  0  0  0  0  0  0  0  0  0  0
    4.2757   -0.2435    0.0000 H   0  0  0  0  0  0  0  0  0  0  0  0
    2.4214   -2.3030    0.0000 H   0  0  0  0  0  0  0  0  0  0  0  0
    1.7323    1.9239    0.0000 C   0  0  0  0  0  0  0  0  0  0  0  0
    3.1179    2.7239    0.0000 C   0  0  0  0  0  0  0  0  0  0  0  0
    4.5036    3.5239    0.0000 H   0  0  0  0  0  0  0  0  0  0  0  0
    3.1179    4.3239    0.0000 H   0  0  0  0  0  0  0  0  0  0  0  0
    4.5036    1.9239    0.0000 H   0  0  0  0  0  0  0  0  0  0  0  0
    0.2706    2.5747    0.0000 N   0  0  0  1  0  0  0  0  0  0  0  0
  1  2  1  0  0  0  0
  2  3  1  0  0  0  0
  3  4  1  0  0  0  0
  3  5  1  0  0  0  0
  3  6  1  0  0  0  0
  2  7  1  0  0  0  0
  7  8  2  0  0  0  0
  7  9  1  0  0  0  0
  9 10  1  0  0  0  0
  9 11  1  0  0  0  0
 11 12  2  0  0  0  0
 11 13  1  0  0  0  0
 13  1  4  0  0  0  0
 13 14  4  0  0  0  0
 14 15  1  0  0  0  0
 15 16  1  0  0  0  0
 15 17  1  0  0  0  0
 15 18  1  0  0  0  0
 14 19  4  0  0  0  0
 19 20  1  0  0  0  0
 20 21  1  0  0  0  0
 20 22  1  0  0  0  0
 20 23  1  0  0  0  0
 19 24  4  0  0  0  0
 24  1  4  0  0  0  0
M  END
> <CAS>
6050-42-6

> <NAME>
1H-Purine-2,6-dione, 3,7-dihydro-3,7,8-trimethyl

> <preferred_name>
ST015404

> <iupac>
C22H21N3O2S

> <SMILES>
Cc1[n]c2c(C(=O)NC(=O)N2C)[n]1C

> <Canonical_QSARr>
Cc1[n]c2c(C(=O)NC(=O)N2C)[n]1C

> <InChI_Code_QSARr>
InChI=1S/C8H10N4O2/c1-4-9-6-5(11(4)2)7(13)10-8(14)12(6)3/h1-3H3,(H,10,13,14)

> <InChI Key_QSARr>
FUNKLPFBUONSBR-UHFFFAOYSA-N

> <Salt_Solvent>
?

> <WS Temperature>


> <WS Reference>
BEILSTEIN

> <dsstox_substance_id>
DTXSID50387171

> <LogMolar>
-0.5432

$$$$
6093-30-7
  -INDIGO-01081615412D

 42 42  0  0  0  0  0  0  0  0999 V2000
    4.0000   -4.1569    0.0000 C   0  0  0  0  0  0  0  0  0  0  0  0
    3.2001   -5.5425    0.0000 C   0  0  0  0  0  0  0  0  0  0  0  0
    1.5999   -5.5425    0.0000 H   0  0  0  0  0  0  0  0  0  0  0  0
    4.0000   -6.9282    0.0000 C   0  0  0  0  0  0  0  0  0  0  0  0
    3.2001   -8.3138    0.0000 H   0  0  0  0  0  0  0  0  0  0  0  0
    5.5999   -6.9282    0.0000 C   0  0  0  0  0  0  0  0  0  0  0  0
    6.4001   -8.3138    0.0000 H   0  0  0  0  0  0  0  0  0  0  0  0
    6.4001   -5.5425    0.0000 C   0  0  0  0  0  0  0  0  0  0  0  0
    8.0000   -5.5425    0.0000 H   0  0  0  0  0  0  0  0  0  0  0  0
    5.5999   -4.1569    0.0000 C   0  0  0  0  0  0  0  0  0  0  0  0
    6.4001   -2.7712    0.0000 C   0  0  0  0  0  0  0  0  0  0  0  0
    8.0000   -2.7712    0.0000 O   0  0  0  0  0  0  0  0  0  0  0  0
    8.8000   -1.3857    0.0000 C   0  0  0  0  0  0  0  0  0  0  0  0
    9.8284   -0.1599    0.0000 C   0  0  0  0  0  0  0  0  0  0  0  0
   10.8569    1.0658    0.0000 N   0  0  0  0  0  0  0  0  0  0  0  0
   12.4325    0.7879    0.0000 O   0  0  0  0  0  0  0  0  0  0  0  0
   10.3096    2.5691    0.0000 O   0  0  0  0  0  0  0  0  0  0  0  0
   11.0541   -1.1885    0.0000 N   0  0  0  0  0  0  0  0  0  0  0  0
   12.5576   -0.6411    0.0000 O   0  0  0  0  0  0  0  0  0  0  0  0
   11.0541   -2.7884    0.0000 O   0  0  0  0  0  0  0  0  0  0  0  0
    8.6028    0.8685    0.0000 N   0  0  0  0  0  0  0  0  0  0  0  0
    8.8807    2.4441    0.0000 O   0  0  0  0  0  0  0  0  0  0  0  0
    7.0272    0.5906    0.0000 O   0  0  0  0  0  0  0  0  0  0  0  0
   10.1856   -2.1856    0.0000 H   0  0  0  0  0  0  0  0  0  0  0  0
    7.4143   -0.5856    0.0000 H   0  0  0  0  0  0  0  0  0  0  0  0
    5.5999   -1.3857    0.0000 O   0  0  0  0  0  0  0  0  0  0  0  0
    3.2001   -2.7712    0.0000 C   0  0  0  0  0  0  0  0  0  0  0  0
    1.5999   -2.7714    0.0000 O   0  0  0  0  0  0  0  0  0  0  0  0
    0.8000   -1.3857    0.0000 C   0  0  0  0  0  0  0  0  0  0  0  0
    0.0000   -0.0000    0.0000 C   0  0  0  0  0  0  0  0  0  0  0  0
   -0.7999    1.3856    0.0000 N   0  0  0  0  0  0  0  0  0  0  0  0
   -2.4001    1.3856    0.0000 O   0  0  0  0  0  0  0  0  0  0  0  0
    0.0000    2.7713    0.0000 O   0  0  0  0  0  0  0  0  0  0  0  0
   -1.3856   -0.7999    0.0000 N   0  0  0  0  0  0  0  0  0  0  0  0
   -2.7713   -0.0000    0.0000 O   0  0  0  0  0  0  0  0  0  0  0  0
   -1.6635   -2.3757    0.0000 O   0  0  0  0  0  0  0  0  0  0  0  0
    1.3857    0.8000    0.0000 N   0  0  0  0  0  0  0  0  0  0  0  0
    1.3857    2.4000    0.0000 O   0  0  0  0  0  0  0  0  0  0  0  0
    2.8892    0.2528    0.0000 O   0  0  0  0  0  0  0  0  0  0  0  0
   -0.5857   -2.1856    0.0000 H   0  0  0  0  0  0  0  0  0  0  0  0
    2.1856   -0.5856    0.0000 H   0  0  0  0  0  0  0  0  0  0  0  0
    4.0000   -1.3857    0.0000 O   0  0  0  0  0  0  0  0  0  0  0  0
  1  2  4  0  0  0  0
  2  3  1  0  0  0  0
  2  4  4  0  0  0  0
  4  5  1  0  0  0  0
  4  6  4  0  0  0  0
  6  7  1  0  0  0  0
  6  8  4  0  0  0  0
  8  9  1  0  0  0  0
  8 10  4  0  0  0  0
 10  1  4  0  0  0  0
 10 11  1  0  0  0  0
 11 12  1  0  0  0  0
 12 13  1  0  0  0  0
 13 14  1  0  0  0  0
 14 15  1  0  0  0  0
 15 16  2  0  0  0  0
 15 17  1  0  0  0  0
 14 18  1  0  0  0  0
 18 19  2  0  0  0  0
 18 20  1  0  0  0  0
 14 21  1  0  0  0  0
 21 22  2  0  0  0  0
 21 23  1  0  0  0  0
 13 24  1  0  0  0  0
 13 25  1  0  0  0  0
 11 26  2  0  0  0  0
  1 27  1  0  0  0  0
 27 28  1  0  0  0  0
 28 29  1  0  0  0  0
 29 30  1  0  0  0  0
 30 31  1  0  0  0  0
 31 32  2  0  0  0  0
 31 33  1  0  0  0  0
 30 34  1  0  0  0  0
 34 35  2  0  0  0  0
 34 36  1  0  0  0  0
 30 37  1  0  0  0  0
 37 38  2  0  0  0  0
 37 39  1  0  0  0  0
 29 40  1  0  0  0  0
 29 41  1  0  0  0  0
 27 42  2  0  0  0  0
M  CHG  8  15   1  17  -1  18   1  20  -1  21   1  23  -1  31   1  33  -1
M  CHG  4  34   1  36  -1  37   1  39  -1
M  END
> <CAS>
6093-30-7

> <NAME>
Phthalic acid, bis(2,2,2-trinitroethyl) ester

> <preferred_name>


> <iupac>


> <SMILES>
[O-][N+](=O)C(COC(=O)c1ccccc1C(=O)OCC([N+]([O-])=O)([N+]([O-])=O)[N+]([O-])=O)([N+]([O-])=O)[N+]([O-])=O

> <Canonical_QSARr>
[O-][N+](=O)C(COC(=O)c1ccccc1C(=O)OCC([N+]([O-])=O)([N+]([O-])=O)[N+]([O-])=O)([N+]([O-])=O)[N+]([O-])=O

> <InChI_Code_QSARr>
InChI=1S/C12H8N6O16/c19-9(33-5-11(13(21)22,14(23)24)15(25)26)7-3-1-2-4-8(7)10(20)34-6-12(16(27)28,17(29)30)18(31)32/h1-4H,5-6H2

> <InChI Key_QSARr>
KPHWKKRARXZEEU-UHFFFAOYSA-N

> <Salt_Solvent>
?

> <WS Temperature>
20

> <WS Reference>
BEILSTEIN

> <dsstox_substance_id>


> <LogMolar>
-3.5782

$$$$
6142-53-6
  -INDIGO-01081615412D

 28 28  0  0  0  0  0  0  0  0999 V2000
   -1.6000    4.9243    0.0000 N   0  0  0  0  0  0  0  0  0  0  0  0
   -2.8945    3.9839    0.0000 C   0  0  0  0  0  0  0  0  0  0  0  0
   -3.3888    5.5055    0.0000 H   0  0  0  0  0  0  0  0  0  0  0  0
   -4.3980    4.5311    0.0000 H   0  0  0  0  0  0  0  0  0  0  0  0
   -3.3888    2.4621    0.0000 C   0  0  0  0  0  0  0  0  0  0  0  0
   -4.6833    3.4026    0.0000 H   0  0  0  0  0  0  0  0  0  0  0  0
   -4.9269    2.0211    0.0000 H   0  0  0  0  0  0  0  0  0  0  0  0
   -2.8945    0.9404    0.0000 C   0  0  0  0  0  0  0  0  0  0  0  0
   -4.4701    0.6626    0.0000 H   0  0  0  0  0  0  0  0  0  0  0  0
   -3.6456   -0.4723    0.0000 H   0  0  0  0  0  0  0  0  0  0  0  0
   -1.6000   -0.0000    0.0000 C   0  0  0  0  0  0  0  0  0  0  0  0
   -2.7115   -1.1509    0.0000 H   0  0  0  0  0  0  0  0  0  0  0  0
   -1.3773   -1.5844    0.0000 H   0  0  0  0  0  0  0  0  0  0  0  0
   -0.0000   -0.0000    0.0000 C   0  0  0  0  0  0  0  0  0  0  0  0
   -0.2227   -1.5844    0.0000 H   0  0  0  0  0  0  0  0  0  0  0  0
    1.1114   -1.1509    0.0000 H   0  0  0  0  0  0  0  0  0  0  0  0
    1.2944    0.9404    0.0000 C   0  0  0  0  0  0  0  0  0  0  0  0
    2.0456   -0.4723    0.0000 H   0  0  0  0  0  0  0  0  0  0  0  0
    2.8701    0.6626    0.0000 H   0  0  0  0  0  0  0  0  0  0  0  0
    1.7889    2.4622    0.0000 C   0  0  0  0  0  0  0  0  0  0  0  0
    3.2269    1.7608    0.0000 H   0  0  0  0  0  0  0  0  0  0  0  0
    3.0832    3.4026    0.0000 H   0  0  0  0  0  0  0  0  0  0  0  0
    1.2944    3.9839    0.0000 C   0  0  0  0  0  0  0  0  0  0  0  0
    2.7979    4.5311    0.0000 H   0  0  0  0  0  0  0  0  0  0  0  0
    1.7889    5.5055    0.0000 H   0  0  0  0  0  0  0  0  0  0  0  0
   -0.0000    4.9243    0.0000 C   0  0  0  0  0  0  0  0  0  0  0  0
    0.4944    6.4460    0.0000 O   0  0  0  0  0  0  0  0  0  0  0  0
   -2.0945    6.4460    0.0000 H   0  0  0  0  0  0  0  0  0  0  0  0
  1  2  1  0  0  0  0
  2  3  1  0  0  0  0
  2  4  1  0  0  0  0
  2  5  1  0  0  0  0
  5  6  1  0  0  0  0
  5  7  1  0  0  0  0
  5  8  1  0  0  0  0
  8  9  1  0  0  0  0
  8 10  1  0  0  0  0
  8 11  1  0  0  0  0
 11 12  1  0  0  0  0
 11 13  1  0  0  0  0
 11 14  1  0  0  0  0
 14 15  1  0  0  0  0
 14 16  1  0  0  0  0
 14 17  1  0  0  0  0
 17 18  1  0  0  0  0
 17 19  1  0  0  0  0
 17 20  1  0  0  0  0
 20 21  1  0  0  0  0
 20 22  1  0  0  0  0
 20 23  1  0  0  0  0
 23 24  1  0  0  0  0
 23 25  1  0  0  0  0
 23 26  1  0  0  0  0
 26  1  1  0  0  0  0
 26 27  2  0  0  0  0
  1 28  1  0  0  0  0
M  END
> <CAS>
6142-53-6

> <NAME>
2(1H)-Azecinone, octahydro-

> <preferred_name>


> <iupac>


> <SMILES>
O=C1CCCCCCCCN1

> <Canonical_QSARr>
O=C1CCCCCCCCN1

> <InChI_Code_QSARr>
InChI=1S/C9H17NO/c11-9-7-5-3-1-2-4-6-8-10-9/h1-8H2,(H,10,11)

> <InChI Key_QSARr>
KBLFLMTZLPQGIF-UHFFFAOYSA-N

> <Salt_Solvent>
?

> <WS Temperature>
22

> <WS Reference>
BEILSTEIN

> <dsstox_substance_id>


> <LogMolar>
-1.0737

$$$$
6236-05-1
  -INDIGO-01081615412D

 15 15  0  0  0  0  0  0  0  0999 V2000
    3.1824    0.3345    0.0000 N   0  0  0  0  0  0  0  0  0  0  0  0
    1.5913    0.1673    0.0000 C   0  0  0  0  0  0  0  0  0  0  0  0
    0.0001   -0.0000    0.0000 C   0  0  0  0  0  0  0  0  0  0  0  0
   -1.0707    1.1890    0.0000 O   0  0  0  0  0  0  0  0  0  0  0  0
   -2.5323    0.5382    0.0000 C   0  0  0  0  0  0  0  0  0  0  0  0
   -3.9179    1.3382    0.0000 N   0  0  0  0  0  0  0  0  0  0  0  0
   -3.9179    2.9383    0.0000 O   0  0  0  0  0  0  0  0  0  0  0  0
   -5.3036    0.5382    0.0000 O   0  0  0  0  0  0  0  0  0  0  0  0
   -2.3650   -1.0530    0.0000 C   0  0  0  0  0  0  0  0  0  0  0  0
   -3.5541   -2.1236    0.0000 H   0  0  0  0  0  0  0  0  0  0  0  0
   -0.8001   -1.3856    0.0000 C   0  0  0  0  0  0  0  0  0  0  0  0
   -0.1493   -2.8473    0.0000 H   0  0  0  0  0  0  0  0  0  0  0  0
    1.4240    1.7585    0.0000 H   0  0  0  0  0  0  0  0  0  0  0  0
    1.7584   -1.4240    0.0000 H   0  0  0  0  0  0  0  0  0  0  0  0
    3.8332    1.7961    0.0000 O   0  0  0  0  0  0  0  0  0  0  0  0
  1  2  1  0  0  0  0
  2  3  1  0  0  0  0
  3  4  4  0  0  0  0
  4  5  4  0  0  0  0
  5  6  1  0  0  0  0
  6  7  2  0  0  0  0
  6  8  1  0  0  0  0
  5  9  4  0  0  0  0
  9 10  1  0  0  0  0
  9 11  4  0  0  0  0
 11  3  4  0  0  0  0
 11 12  1  0  0  0  0
  2 13  1  0  0  0  0
  2 14  1  0  0  0  0
  1 15  2  0  0  0  0
M  CHG  2   6   1   8  -1
M  END
> <CAS>
6236-05-1

> <NAME>
NIFUROXIME

> <preferred_name>
Nifuroxime

> <iupac>
N-hydroxy-1-(5-nitrofuran-2-yl)methanimine

> <SMILES>
[O-][N+](=O)c1ccc(C=NO)o1

> <Canonical_QSARr>
[O-][N+](=O)c1ccc(CN=O)o1

> <InChI_Code_QSARr>
InChI=1S/C5H4N2O4/c8-6-3-4-1-2-5(11-4)7(9)10/h1-2H,3H2

> <InChI Key_QSARr>
YPLKHPGELUGWCJ-UHFFFAOYSA-N

> <Salt_Solvent>
?

> <WS Temperature>
25

> <WS Reference>
MERCK INDEX (1996)

> <dsstox_substance_id>
DTXSID8046402

> <LogMolar>
-2.1934

$$$$
6280-24-6
  -INDIGO-01081615412D

 43 42  0  0  0  0  0  0  0  0999 V2000
  -10.4001   -1.3857    0.0000 C   0  0  0  0  0  0  0  0  0  0  0  0
  -11.9999   -1.3857    0.0000 C   0  0  0  0  0  0  0  0  0  0  0  0
  -13.6000   -1.3857    0.0000 H   0  0  0  0  0  0  0  0  0  0  0  0
  -12.7999   -2.7713    0.0000 H   0  0  0  0  0  0  0  0  0  0  0  0
  -12.7999   -0.0000    0.0000 H   0  0  0  0  0  0  0  0  0  0  0  0
  -10.4001   -2.9856    0.0000 O   0  0  0  0  0  0  0  0  0  0  0  0
  -11.7857   -3.7856    0.0000 H   0  0  0  0  0  0  0  0  0  0  0  0
   -8.8000   -1.3857    0.0000 C   0  0  0  0  0  0  0  0  0  0  0  0
   -7.9999   -2.7713    0.0000 O   0  0  0  0  0  0  0  0  0  0  0  0
   -7.9999   -0.0000    0.0000 N   0  0  0  0  0  0  0  0  0  0  0  0
   -6.4002   -0.0000    0.0000 C   0  0  0  0  0  0  0  0  0  0  0  0
   -4.8000   -0.0000    0.0000 C   0  0  0  0  0  0  0  0  0  0  0  0
   -3.1999   -0.0000    0.0000 C   0  0  0  0  0  0  0  0  0  0  0  0
   -1.6001   -0.0000    0.0000 C   0  0  0  0  0  0  0  0  0  0  0  0
   -0.0000   -0.0000    0.0000 C   0  0  0  0  0  0  0  0  0  0  0  0
    1.6001   -0.0000    0.0000 C   0  0  0  0  0  0  0  0  0  0  0  0
    3.1999   -0.0000    0.0000 C   0  0  0  0  0  0  0  0  0  0  0  0
    4.8000   -0.0000    0.0000 C   0  0  0  0  0  0  0  0  0  0  0  0
    6.4001   -0.0000    0.0000 C   0  0  0  0  0  0  0  0  0  0  0  0
    7.9999   -0.0000    0.0000 C   0  0  0  0  0  0  0  0  0  0  0  0
    9.6000   -0.0000    0.0000 H   0  0  0  0  0  0  0  0  0  0  0  0
    8.7999    1.3857    0.0000 H   0  0  0  0  0  0  0  0  0  0  0  0
    8.7999   -1.3857    0.0000 H   0  0  0  0  0  0  0  0  0  0  0  0
    6.4001   -1.6000    0.0000 H   0  0  0  0  0  0  0  0  0  0  0  0
    6.4001    1.6000    0.0000 H   0  0  0  0  0  0  0  0  0  0  0  0
    4.8000   -1.6000    0.0000 H   0  0  0  0  0  0  0  0  0  0  0  0
    4.8000    1.6000    0.0000 H   0  0  0  0  0  0  0  0  0  0  0  0
    3.1999   -1.6000    0.0000 H   0  0  0  0  0  0  0  0  0  0  0  0
    3.1999    1.6000    0.0000 H   0  0  0  0  0  0  0  0  0  0  0  0
    1.6001   -1.6000    0.0000 H   0  0  0  0  0  0  0  0  0  0  0  0
    1.6001    1.6000    0.0000 H   0  0  0  0  0  0  0  0  0  0  0  0
   -0.0000    1.6000    0.0000 H   0  0  0  0  0  0  0  0  0  0  0  0
   -0.0000   -1.6000    0.0000 H   0  0  0  0  0  0  0  0  0  0  0  0
   -1.6001   -1.6000    0.0000 H   0  0  0  0  0  0  0  0  0  0  0  0
   -1.6001    1.6000    0.0000 H   0  0  0  0  0  0  0  0  0  0  0  0
   -3.1999    1.6000    0.0000 H   0  0  0  0  0  0  0  0  0  0  0  0
   -3.1999   -1.6000    0.0000 H   0  0  0  0  0  0  0  0  0  0  0  0
   -4.8000   -1.6000    0.0000 H   0  0  0  0  0  0  0  0  0  0  0  0
   -4.8000    1.6000    0.0000 H   0  0  0  0  0  0  0  0  0  0  0  0
   -6.4002   -1.6000    0.0000 H   0  0  0  0  0  0  0  0  0  0  0  0
   -6.4002    1.6000    0.0000 H   0  0  0  0  0  0  0  0  0  0  0  0
   -8.8000    1.3857    0.0000 H   0  0  0  0  0  0  0  0  0  0  0  0
  -10.4001    0.2144    0.0000 H   0  0  0  0  0  0  0  0  0  0  0  0
  1  2  1  0  0  0  0
  2  3  1  0  0  0  0
  2  4  1  0  0  0  0
  2  5  1  0  0  0  0
  1  6  1  0  0  0  0
  6  7  1  0  0  0  0
  1  8  1  0  0  0  0
  8  9  2  0  0  0  0
  8 10  1  0  0  0  0
 10 11  1  0  0  0  0
 11 12  1  0  0  0  0
 12 13  1  0  0  0  0
 13 14  1  0  0  0  0
 14 15  1  0  0  0  0
 15 16  1  0  0  0  0
 16 17  1  0  0  0  0
 17 18  1  0  0  0  0
 18 19  1  0  0  0  0
 19 20  1  0  0  0  0
 20 21  1  0  0  0  0
 20 22  1  0  0  0  0
 20 23  1  0  0  0  0
 19 24  1  0  0  0  0
 19 25  1  0  0  0  0
 18 26  1  0  0  0  0
 18 27  1  0  0  0  0
 17 28  1  0  0  0  0
 17 29  1  0  0  0  0
 16 30  1  0  0  0  0
 16 31  1  0  0  0  0
 15 32  1  0  0  0  0
 15 33  1  0  0  0  0
 14 34  1  0  0  0  0
 14 35  1  0  0  0  0
 13 36  1  0  0  0  0
 13 37  1  0  0  0  0
 12 38  1  0  0  0  0
 12 39  1  0  0  0  0
 11 40  1  0  0  0  0
 11 41  1  0  0  0  0
 10 42  1  0  0  0  0
  1 43  1  0  0  0  0
M  END
> <CAS>
6280-24-6

> <NAME>
Lactamide, N-decyl-

> <preferred_name>


> <iupac>


> <SMILES>
CCCCCCCCCCNC(=O)C(C)O

> <Canonical_QSARr>
CCCCCCCCCCNC(=O)C(C)O

> <InChI_Code_QSARr>
InChI=1S/C13H27NO2/c1-3-4-5-6-7-8-9-10-11-14-13(16)12(2)15/h12,15H,3-11H2,1-2H3,(H,14,16)

> <InChI Key_QSARr>
NUXGELRNTBNWTF-UHFFFAOYSA-N

> <Salt_Solvent>
?

> <WS Temperature>
25

> <WS Reference>
BEILSTEIN

> <dsstox_substance_id>


> <LogMolar>
-3.3605

$$$$
6295-23-4
  -INDIGO-01081615412D

 24 23  0  0  0  0  0  0  0  0999 V2000
   -1.3856    4.0001    0.0000 O   0  0  0  0  0  0  0  0  0  0  0  0
    0.0001    3.2000    0.0000 C   0  0  0  0  0  0  0  0  0  0  0  0
    0.0001    1.6000    0.0000 C   0  0  0  0  0  0  0  0  0  0  0  0
    0.0001    0.0000    0.0000 N   0  0  0  0  0  0  0  0  0  0  0  0
    1.3856   -0.8000    0.0000 C   0  0  0  0  0  0  0  0  0  0  0  0
    2.7712   -1.6001    0.0000 C   0  0  0  0  0  0  0  0  0  0  0  0
    4.1569   -2.4000    0.0000 C   0  0  0  0  0  0  0  0  0  0  0  0
    5.5426   -3.2000    0.0000 N   0  0  0  0  0  0  0  0  0  0  0  0
    3.5713   -0.2143    0.0000 H   0  0  0  0  0  0  0  0  0  0  0  0
    1.9713   -2.9857    0.0000 H   0  0  0  0  0  0  0  0  0  0  0  0
    2.1856    0.5856    0.0000 H   0  0  0  0  0  0  0  0  0  0  0  0
    0.5857   -2.1857    0.0000 H   0  0  0  0  0  0  0  0  0  0  0  0
   -1.3856   -0.8000    0.0000 C   0  0  0  0  0  0  0  0  0  0  0  0
   -2.7712   -1.6001    0.0000 C   0  0  0  0  0  0  0  0  0  0  0  0
   -4.1569   -2.4000    0.0000 C   0  0  0  0  0  0  0  0  0  0  0  0
   -5.5426   -3.2000    0.0000 N   0  0  0  0  0  0  0  0  0  0  0  0
   -3.5713   -0.2143    0.0000 H   0  0  0  0  0  0  0  0  0  0  0  0
   -1.9713   -2.9857    0.0000 H   0  0  0  0  0  0  0  0  0  0  0  0
   -2.1856    0.5856    0.0000 H   0  0  0  0  0  0  0  0  0  0  0  0
   -0.5857   -2.1857    0.0000 H   0  0  0  0  0  0  0  0  0  0  0  0
    1.6001    1.6000    0.0000 H   0  0  0  0  0  0  0  0  0  0  0  0
   -1.6001    1.6000    0.0000 H   0  0  0  0  0  0  0  0  0  0  0  0
    1.3856    4.0001    0.0000 O   0  0  0  0  0  0  0  0  0  0  0  0
   -1.3856    5.6000    0.0000 H   0  0  0  0  0  0  0  0  0  0  0  0
  1  2  1  0  0  0  0
  2  3  1  0  0  0  0
  3  4  1  0  0  0  0
  4  5  1  0  0  0  0
  5  6  1  0  0  0  0
  6  7  1  0  0  0  0
  7  8  3  0  0  0  0
  6  9  1  0  0  0  0
  6 10  1  0  0  0  0
  5 11  1  0  0  0  0
  5 12  1  0  0  0  0
  4 13  1  0  0  0  0
 13 14  1  0  0  0  0
 14 15  1  0  0  0  0
 15 16  3  0  0  0  0
 14 17  1  0  0  0  0
 14 18  1  0  0  0  0
 13 19  1  0  0  0  0
 13 20  1  0  0  0  0
  3 21  1  0  0  0  0
  3 22  1  0  0  0  0
  2 23  2  0  0  0  0
  1 24  1  0  0  0  0
M  END
> <CAS>
6295-23-4

> <NAME>
Glycine, N,N-bis(2-cyanoethyl)-

> <preferred_name>
Glycine, N,N-bis(2-cyanoethyl)- (8CI)(9CI)

> <iupac>
2-(bis(2-cyanoethyl)amino)acetic acid

> <SMILES>
N#CCCN(CC(O)=O)CCC#N

> <Canonical_QSARr>
N#CCCN(CC(O)=O)CCC#N

> <InChI_Code_QSARr>
InChI=1S/C8H11N3O2/c9-3-1-5-11(6-2-4-10)7-8(12)13/h1-2,5-7H2,(H,12,13)

> <InChI Key_QSARr>
KIGQVWWOESIMBG-UHFFFAOYSA-N

> <Salt_Solvent>
?

> <WS Temperature>
26

> <WS Reference>
BEILSTEIN

> <dsstox_substance_id>
DTXSID50212151

> <LogMolar>
0.4578

$$$$
6306-24-7
  -INDIGO-01081615412D

 21 21  0  0  0  0  0  0  0  0999 V2000
    1.6000    0.0000    0.0000 S   0  0  0  0  0  0  0  0  0  0  0  0
    0.0001   -0.0000    0.0000 C   0  0  0  0  0  0  0  0  0  0  0  0
   -0.7999    1.3856    0.0000 C   0  0  0  0  0  0  0  0  0  0  0  0
    0.0001    2.7713    0.0000 H   0  0  0  0  0  0  0  0  0  0  0  0
   -2.4001    1.3856    0.0000 C   0  0  0  0  0  0  0  0  0  0  0  0
   -3.2001    2.7713    0.0000 H   0  0  0  0  0  0  0  0  0  0  0  0
   -3.2001   -0.0000    0.0000 C   0  0  0  0  0  0  0  0  0  0  0  0
   -4.8000   -0.0000    0.0000 C   0  0  0  0  0  0  0  0  0  0  0  0
   -5.6000    1.3856    0.0000 N   0  0  0  0  0  0  0  0  0  0  0  0
   -7.2000    1.3856    0.0000 H   0  0  0  0  0  0  0  0  0  0  0  0
   -4.8000    2.7713    0.0000 H   0  0  0  0  0  0  0  0  0  0  0  0
   -5.6000   -1.3856    0.0000 O   0  0  0  0  0  0  0  0  0  0  0  0
   -2.4001   -1.3856    0.0000 C   0  0  0  0  0  0  0  0  0  0  0  0
   -3.2001   -2.7713    0.0000 H   0  0  0  0  0  0  0  0  0  0  0  0
   -0.7999   -1.3856    0.0000 C   0  0  0  0  0  0  0  0  0  0  0  0
    0.0001   -2.7713    0.0000 H   0  0  0  0  0  0  0  0  0  0  0  0
    3.2000    0.0000    0.0000 N   0  0  0  0  0  0  0  0  0  0  0  0
    4.0000   -1.3856    0.0000 H   0  0  0  0  0  0  0  0  0  0  0  0
    4.0000    1.3856    0.0000 H   0  0  0  0  0  0  0  0  0  0  0  0
    1.6000   -1.6000    0.0000 O   0  0  0  0  0  0  0  0  0  0  0  0
    1.6000    1.6000    0.0000 O   0  0  0  0  0  0  0  0  0  0  0  0
  1  2  1  0  0  0  0
  2  3  4  0  0  0  0
  3  4  1  0  0  0  0
  3  5  4  0  0  0  0
  5  6  1  0  0  0  0
  5  7  4  0  0  0  0
  7  8  1  0  0  0  0
  8  9  1  0  0  0  0
  9 10  1  0  0  0  0
  9 11  1  0  0  0  0
  8 12  2  0  0  0  0
  7 13  4  0  0  0  0
 13 14  1  0  0  0  0
 13 15  4  0  0  0  0
 15  2  4  0  0  0  0
 15 16  1  0  0  0  0
  1 17  1  0  0  0  0
 17 18  1  0  0  0  0
 17 19  1  0  0  0  0
  1 20  2  0  0  0  0
  1 21  2  0  0  0  0
M  END
> <CAS>
6306-24-7

> <NAME>
BENZAMIDE, 4-(AMINOSULFONYL)-

> <preferred_name>
p-Sulphamoylbenzamide

> <iupac>
4-sulfamoylbenzamide

> <SMILES>
NC(=O)c1ccc(cc1)S(N)(=O)=O

> <Canonical_QSARr>
NC(=O)c1ccc(cc1)S(N)(=O)=O

> <InChI_Code_QSARr>
InChI=1S/C7H8N2O3S/c8-7(10)5-1-3-6(4-2-5)13(9,11)12/h1-4H,(H2,8,10)(H2,9,11,12)

> <InChI Key_QSARr>
MWFFIRCXGDGFQB-UHFFFAOYSA-N

> <Salt_Solvent>
?

> <WS Temperature>
25

> <WS Reference>
BEILSTEIN

> <dsstox_substance_id>
DTXSID60212384

> <LogMolar>
-2.3015

$$$$
6319-40-0
  -INDIGO-01081615412D

 17 17  0  0  0  0  0  0  0  0999 V2000
    4.1569    2.4000    0.0000 Br  0  0  0  0  0  0  0  0  0  0  0  0
    2.7713    1.6000    0.0000 C   0  0  0  0  0  0  0  0  0  0  0  0
    1.3857    2.4000    0.0000 C   0  0  0  0  0  0  0  0  0  0  0  0
    1.3857    4.0000    0.0000 H   0  0  0  0  0  0  0  0  0  0  0  0
   -0.0001    1.6000    0.0000 C   0  0  0  0  0  0  0  0  0  0  0  0
   -1.3857    2.4000    0.0000 H   0  0  0  0  0  0  0  0  0  0  0  0
   -0.0001    0.0000    0.0000 C   0  0  0  0  0  0  0  0  0  0  0  0
   -1.3857   -0.8000    0.0000 C   0  0  0  0  0  0  0  0  0  0  0  0
   -1.3857   -2.4000    0.0000 O   0  0  0  0  0  0  0  0  0  0  0  0
   -2.7713    0.0000    0.0000 O   0  0  0  0  0  0  0  0  0  0  0  0
   -4.1569   -0.8000    0.0000 H   0  0  0  0  0  0  0  0  0  0  0  0
    1.3857   -0.8000    0.0000 C   0  0  0  0  0  0  0  0  0  0  0  0
    1.3857   -2.4000    0.0000 H   0  0  0  0  0  0  0  0  0  0  0  0
    2.7713    0.0000    0.0000 C   0  0  0  0  0  0  0  0  0  0  0  0
    4.1569   -0.8000    0.0000 N   0  0  0  0  0  0  0  0  0  0  0  0
    5.5426    0.0000    0.0000 O   0  0  0  0  0  0  0  0  0  0  0  0
    4.1569   -2.4000    0.0000 O   0  0  0  0  0  0  0  0  0  0  0  0
  1  2  1  0  0  0  0
  2  3  4  0  0  0  0
  3  4  1  0  0  0  0
  3  5  4  0  0  0  0
  5  6  1  0  0  0  0
  5  7  4  0  0  0  0
  7  8  1  0  0  0  0
  8  9  2  0  0  0  0
  8 10  1  0  0  0  0
 10 11  1  0  0  0  0
  7 12  4  0  0  0  0
 12 13  1  0  0  0  0
 12 14  4  0  0  0  0
 14  2  4  0  0  0  0
 14 15  1  0  0  0  0
 15 16  2  0  0  0  0
 15 17  1  0  0  0  0
M  CHG  2  15   1  17  -1
M  END
> <CAS>
6319-40-0

> <NAME>
Benzoic acid, 4-bromo-3-nitro-

> <preferred_name>
4-Bromo-3-nitrobenzoic acid

> <iupac>
C7H4BrNO4

> <SMILES>
[O-][N+](=O)c1cc(ccc1Br)C(O)=O

> <Canonical_QSARr>
[O-][N+](=O)c1cc(ccc1Br)C(O)=O

> <InChI_Code_QSARr>
InChI=1S/C7H4BrNO4/c8-5-2-1-4(7(10)11)3-6(5)9(12)13/h1-3H,(H,10,11)

> <InChI Key_QSARr>
RVCTZJVBWNFYRU-UHFFFAOYSA-N

> <Salt_Solvent>
?

> <WS Temperature>
25

> <WS Reference>
BEILSTEIN

> <dsstox_substance_id>
DTXSID40283355

> <LogMolar>
-2.9677

$$$$
6329-16-4
  -INDIGO-01081615412D

 32 32  0  0  0  0  0  0  0  0999 V2000
    0.0001    0.0001    0.0000 C   0  0  0  0  0  0  0  0  0  0  0  0
    0.8001    1.3856    0.0000 C   0  0  0  0  0  0  0  0  0  0  0  0
    2.4000    1.3856    0.0000 N   0  0  0  0  0  0  0  0  0  0  0  0
    3.2000    2.7713    0.0000 C   0  0  0  0  0  0  0  0  0  0  0  0
    4.0000    4.1569    0.0000 H   0  0  0  0  0  0  0  0  0  0  0  0
    4.8000    2.7713    0.0000 H   0  0  0  0  0  0  0  0  0  0  0  0
    2.4000    4.1569    0.0000 H   0  0  0  0  0  0  0  0  0  0  0  0
    3.2000    0.0001    0.0000 C   0  0  0  0  0  0  0  0  0  0  0  0
    4.8000    0.0001    0.0000 H   0  0  0  0  0  0  0  0  0  0  0  0
    4.0000   -1.3856    0.0000 H   0  0  0  0  0  0  0  0  0  0  0  0
    4.0000    1.3856    0.0000 H   0  0  0  0  0  0  0  0  0  0  0  0
    0.0001    2.7713    0.0000 O   0  0  0  0  0  0  0  0  0  0  0  0
   -1.6001   -0.0001    0.0000 C   0  0  0  0  0  0  0  0  0  0  0  0
   -2.4001    1.3856    0.0000 C   0  0  0  0  0  0  0  0  0  0  0  0
   -4.0000    1.3856    0.0000 N   0  0  0  0  0  0  0  0  0  0  0  0
   -4.8000    2.7712    0.0000 C   0  0  0  0  0  0  0  0  0  0  0  0
   -5.6000    4.1569    0.0000 H   0  0  0  0  0  0  0  0  0  0  0  0
   -6.4000    2.7712    0.0000 H   0  0  0  0  0  0  0  0  0  0  0  0
   -4.0000    4.1569    0.0000 H   0  0  0  0  0  0  0  0  0  0  0  0
   -4.8000   -0.0001    0.0000 C   0  0  0  0  0  0  0  0  0  0  0  0
   -6.4000   -0.0001    0.0000 H   0  0  0  0  0  0  0  0  0  0  0  0
   -5.6000   -1.3856    0.0000 H   0  0  0  0  0  0  0  0  0  0  0  0
   -5.6000    1.3856    0.0000 H   0  0  0  0  0  0  0  0  0  0  0  0
   -1.6001    2.7713    0.0000 O   0  0  0  0  0  0  0  0  0  0  0  0
   -2.4001   -1.3856    0.0000 C   0  0  0  0  0  0  0  0  0  0  0  0
   -4.0000   -1.3856    0.0000 H   0  0  0  0  0  0  0  0  0  0  0  0
   -1.6001   -2.7712    0.0000 C   0  0  0  0  0  0  0  0  0  0  0  0
   -2.4001   -4.1569    0.0000 H   0  0  0  0  0  0  0  0  0  0  0  0
    0.0001   -2.7712    0.0000 C   0  0  0  0  0  0  0  0  0  0  0  0
    0.8001   -4.1569    0.0000 H   0  0  0  0  0  0  0  0  0  0  0  0
    0.8001   -1.3856    0.0000 C   0  0  0  0  0  0  0  0  0  0  0  0
    2.4000   -1.3856    0.0000 H   0  0  0  0  0  0  0  0  0  0  0  0
  1  2  1  0  0  0  0
  2  3  1  0  0  0  0
  3  4  1  0  0  0  0
  4  5  1  0  0  0  0
  4  6  1  0  0  0  0
  4  7  1  0  0  0  0
  3  8  1  0  0  0  0
  8  9  1  0  0  0  0
  8 10  1  0  0  0  0
  8 11  1  0  0  0  0
  2 12  2  0  0  0  0
  1 13  4  0  0  0  0
 13 14  1  0  0  0  0
 14 15  1  0  0  0  0
 15 16  1  0  0  0  0
 16 17  1  0  0  0  0
 16 18  1  0  0  0  0
 16 19  1  0  0  0  0
 15 20  1  0  0  0  0
 20 21  1  0  0  0  0
 20 22  1  0  0  0  0
 20 23  1  0  0  0  0
 14 24  2  0  0  0  0
 13 25  4  0  0  0  0
 25 26  1  0  0  0  0
 25 27  4  0  0  0  0
 27 28  1  0  0  0  0
 27 29  4  0  0  0  0
 29 30  1  0  0  0  0
 29 31  4  0  0  0  0
 31  1  4  0  0  0  0
 31 32  1  0  0  0  0
M  END
> <CAS>
6329-16-4

> <NAME>
1,2-Benzenedicarboxamide, N,N,N',N'-tetramethyl-

> <preferred_name>
4-benzyl-2-methyl-1,3-oxazol-5(4h)-one

> <iupac>
C11H11NO2

> <SMILES>
CN(C)C(=O)c1ccccc1C(=O)N(C)C

> <Canonical_QSARr>
CN(C)C(=O)c1ccccc1C(=O)N(C)C

> <InChI_Code_QSARr>
InChI=1S/C12H16N2O2/c1-13(2)11(15)9-7-5-6-8-10(9)12(16)14(3)4/h5-8H,1-4H3

> <InChI Key_QSARr>
ZUMRZCLVLLRVIF-UHFFFAOYSA-N

> <Salt_Solvent>
?

> <WS Temperature>
30

> <WS Reference>
BEILSTEIN

> <dsstox_substance_id>
DTXSID20282280

> <LogMolar>
0.5083

$$$$
6382-06-5
  -INDIGO-01081615412D

 27 26  0  0  0  0  0  0  0  0999 V2000
    7.2000   -1.3857    0.0000 C   0  0  0  0  0  0  0  0  0  0  0  0
    8.8001   -1.3857    0.0000 C   0  0  0  0  0  0  0  0  0  0  0  0
   10.4000   -1.3857    0.0000 H   0  0  0  0  0  0  0  0  0  0  0  0
    9.6000   -2.7713    0.0000 H   0  0  0  0  0  0  0  0  0  0  0  0
    9.6000   -0.0000    0.0000 H   0  0  0  0  0  0  0  0  0  0  0  0
    7.2000   -2.9856    0.0000 O   0  0  0  0  0  0  0  0  0  0  0  0
    8.5856   -3.7856    0.0000 H   0  0  0  0  0  0  0  0  0  0  0  0
    5.6001   -1.3857    0.0000 C   0  0  0  0  0  0  0  0  0  0  0  0
    4.8001   -2.7713    0.0000 O   0  0  0  0  0  0  0  0  0  0  0  0
    4.8001   -0.0000    0.0000 O   0  0  0  0  0  0  0  0  0  0  0  0
    3.2000   -0.0000    0.0000 C   0  0  0  0  0  0  0  0  0  0  0  0
    1.6001   -0.0000    0.0000 C   0  0  0  0  0  0  0  0  0  0  0  0
   -0.0001   -0.0000    0.0000 C   0  0  0  0  0  0  0  0  0  0  0  0
   -1.6000   -0.0000    0.0000 C   0  0  0  0  0  0  0  0  0  0  0  0
   -3.2001   -0.0000    0.0000 C   0  0  0  0  0  0  0  0  0  0  0  0
   -4.8000   -0.0000    0.0000 H   0  0  0  0  0  0  0  0  0  0  0  0
   -4.0000   -1.3857    0.0000 H   0  0  0  0  0  0  0  0  0  0  0  0
   -4.0000    1.3857    0.0000 H   0  0  0  0  0  0  0  0  0  0  0  0
   -1.6000   -1.6000    0.0000 H   0  0  0  0  0  0  0  0  0  0  0  0
   -1.6000    1.6000    0.0000 H   0  0  0  0  0  0  0  0  0  0  0  0
   -0.0001    1.6000    0.0000 H   0  0  0  0  0  0  0  0  0  0  0  0
   -0.0001   -1.6000    0.0000 H   0  0  0  0  0  0  0  0  0  0  0  0
    1.6001   -1.6000    0.0000 H   0  0  0  0  0  0  0  0  0  0  0  0
    1.6001    1.6000    0.0000 H   0  0  0  0  0  0  0  0  0  0  0  0
    3.2000   -1.6000    0.0000 H   0  0  0  0  0  0  0  0  0  0  0  0
    3.2000    1.6000    0.0000 H   0  0  0  0  0  0  0  0  0  0  0  0
    7.2000    0.2144    0.0000 H   0  0  0  0  0  0  0  0  0  0  0  0
  1  2  1  0  0  0  0
  2  3  1  0  0  0  0
  2  4  1  0  0  0  0
  2  5  1  0  0  0  0
  1  6  1  0  0  0  0
  6  7  1  0  0  0  0
  1  8  1  0  0  0  0
  8  9  2  0  0  0  0
  8 10  1  0  0  0  0
 10 11  1  0  0  0  0
 11 12  1  0  0  0  0
 12 13  1  0  0  0  0
 13 14  1  0  0  0  0
 14 15  1  0  0  0  0
 15 16  1  0  0  0  0
 15 17  1  0  0  0  0
 15 18  1  0  0  0  0
 14 19  1  0  0  0  0
 14 20  1  0  0  0  0
 13 21  1  0  0  0  0
 13 22  1  0  0  0  0
 12 23  1  0  0  0  0
 12 24  1  0  0  0  0
 11 25  1  0  0  0  0
 11 26  1  0  0  0  0
  1 27  1  0  0  0  0
M  END
> <CAS>
6382-06-5

> <NAME>
AMYL LACTATE

> <preferred_name>
Pentyl 2-hydroxypropanoate

> <iupac>
C8H16O3

> <SMILES>
CCCCCOC(=O)C(C)O

> <Canonical_QSARr>
CCCCCOC(=O)C(C)O

> <InChI_Code_QSARr>
InChI=1S/C8H16O3/c1-3-4-5-6-11-8(10)7(2)9/h7,9H,3-6H2,1-2H3

> <InChI Key_QSARr>
GXOHBWLPQHTYPF-UHFFFAOYSA-N

> <Salt_Solvent>
?

> <WS Temperature>
25

> <WS Reference>
BEILSTEIN

> <dsstox_substance_id>
DTXSID70858752

> <LogMolar>
-1.2047

$$$$
6419-19-8
  -INDIGO-01081615412D

 28 27  0  0  0  0  0  0  0  0999 V2000
    1.6000    2.7713    0.0000 P   0  0  0  0  0  0  0  0  0  0  0  0
    0.8000    1.3856    0.0000 C   0  0  0  0  0  0  0  0  0  0  0  0
   -0.0000   -0.0000    0.0000 N   0  0  0  0  0  0  0  0  0  0  0  0
   -1.6001   -0.0000    0.0000 C   0  0  0  0  0  0  0  0  0  0  0  0
   -3.2000   -0.0000    0.0000 P   0  0  0  0  0  0  0  0  0  0  0  0
   -4.8000   -0.0000    0.0000 O   0  0  0  0  0  0  0  0  0  0  0  0
   -5.6000   -1.3856    0.0000 H   0  0  0  0  0  0  0  0  0  0  0  0
   -3.2000   -1.5999    0.0000 O   0  0  0  0  0  0  0  0  0  0  0  0
   -4.5856   -2.4000    0.0000 H   0  0  0  0  0  0  0  0  0  0  0  0
   -3.2000    1.6000    0.0000 O   0  0  0  0  0  0  0  0  0  0  0  0
   -1.6001   -1.5999    0.0000 H   0  0  0  0  0  0  0  0  0  0  0  0
   -1.6001    1.6000    0.0000 H   0  0  0  0  0  0  0  0  0  0  0  0
    0.8000   -1.3856    0.0000 C   0  0  0  0  0  0  0  0  0  0  0  0
    1.6000   -2.7712    0.0000 P   0  0  0  0  0  0  0  0  0  0  0  0
    2.4000   -4.1569    0.0000 O   0  0  0  0  0  0  0  0  0  0  0  0
    4.0000   -4.1569    0.0000 H   0  0  0  0  0  0  0  0  0  0  0  0
    2.9856   -1.9713    0.0000 O   0  0  0  0  0  0  0  0  0  0  0  0
    4.3713   -2.7712    0.0000 H   0  0  0  0  0  0  0  0  0  0  0  0
    0.2143   -3.5713    0.0000 O   0  0  0  0  0  0  0  0  0  0  0  0
   -0.5857   -2.1857    0.0000 H   0  0  0  0  0  0  0  0  0  0  0  0
    2.1856   -0.5856    0.0000 H   0  0  0  0  0  0  0  0  0  0  0  0
   -0.5857    2.1856    0.0000 H   0  0  0  0  0  0  0  0  0  0  0  0
    2.1856    0.5857    0.0000 H   0  0  0  0  0  0  0  0  0  0  0  0
    2.4000    4.1570    0.0000 O   0  0  0  0  0  0  0  0  0  0  0  0
    4.0000    4.1570    0.0000 H   0  0  0  0  0  0  0  0  0  0  0  0
    0.2143    3.5712    0.0000 O   0  0  0  0  0  0  0  0  0  0  0  0
    0.2143    5.1713    0.0000 H   0  0  0  0  0  0  0  0  0  0  0  0
    2.9856    1.9714    0.0000 O   0  0  0  0  0  0  0  0  0  0  0  0
  1  2  1  0  0  0  0
  2  3  1  0  0  0  0
  3  4  1  0  0  0  0
  4  5  1  0  0  0  0
  5  6  1  0  0  0  0
  6  7  1  0  0  0  0
  5  8  1  0  0  0  0
  8  9  1  0  0  0  0
  5 10  2  0  0  0  0
  4 11  1  0  0  0  0
  4 12  1  0  0  0  0
  3 13  1  0  0  0  0
 13 14  1  0  0  0  0
 14 15  1  0  0  0  0
 15 16  1  0  0  0  0
 14 17  1  0  0  0  0
 17 18  1  0  0  0  0
 14 19  2  0  0  0  0
 13 20  1  0  0  0  0
 13 21  1  0  0  0  0
  2 22  1  0  0  0  0
  2 23  1  0  0  0  0
  1 24  1  0  0  0  0
 24 25  1  0  0  0  0
  1 26  1  0  0  0  0
 26 27  1  0  0  0  0
  1 28  2  0  0  0  0
M  END
> <CAS>
6419-19-8

> <NAME>
(Nitrilotris(methylene))triphosphonic acid

> <preferred_name>
Aminotrimethylene phosphonic acid

> <iupac>
(nitrilotrimethanediyl)tris(phosphonic acid)

> <SMILES>
OP(O)(=O)CN(CP(O)(O)=O)CP(O)(O)=O

> <Canonical_QSARr>
OP(O)(=O)CN(CP(O)(O)=O)CP(O)(O)=O

> <InChI_Code_QSARr>
InChI=1S/C3H12NO9P3/c5-14(6,7)1-4(2-15(8,9)10)3-16(11,12)13/h1-3H2,(H2,5,6,7)(H2,8,9,10)(H2,11,12,13)

> <InChI Key_QSARr>
YDONNITUKPKTIG-UHFFFAOYSA-N

> <Salt_Solvent>
?

> <WS Temperature>
25

> <WS Reference>
GLEDHILL,WE & FEIJTEL,TCJ (1992)

> <dsstox_substance_id>
DTXSID2027624

> <LogMolar>
0.5243

$$$$
6493-05-6
  -INDIGO-01081615412D

 38 39  0  0  0  0  0  0  0  0999 V2000
   -3.1999    0.0001    0.0000 N   0  0  0  0  0  0  0  0  0  0  0  0
   -4.0001    1.3857    0.0000 C   0  0  0  0  0  0  0  0  0  0  0  0
   -3.1999    2.7713    0.0000 O   0  0  0  0  0  0  0  0  0  0  0  0
   -5.6001    1.3857    0.0000 C   0  0  0  0  0  0  0  0  0  0  0  0
   -6.6705    2.5746    0.0000 N   0  0  0  1  0  0  0  0  0  0  0  0
   -8.1322    1.9239    0.0000 C   0  0  0  0  0  0  0  0  0  0  0  0
   -7.9651    0.3326    0.0000 N   0  0  0  1  0  0  0  0  0  0  0  0
   -6.4001    0.0001    0.0000 C   0  0  0  0  0  0  0  0  0  0  0  0
   -5.6001   -1.3857    0.0000 N   0  0  0  0  0  0  0  0  0  0  0  0
   -6.4001   -2.7713    0.0000 C   0  0  0  0  0  0  0  0  0  0  0  0
   -7.2001   -4.1569    0.0000 H   0  0  0  0  0  0  0  0  0  0  0  0
   -5.6001   -4.1569    0.0000 H   0  0  0  0  0  0  0  0  0  0  0  0
   -8.0001   -2.7713    0.0000 H   0  0  0  0  0  0  0  0  0  0  0  0
   -4.0001   -1.3857    0.0000 C   0  0  0  0  0  0  0  0  0  0  0  0
   -3.1999   -2.7713    0.0000 O   0  0  0  0  0  0  0  0  0  0  0  0
   -9.5179    2.7239    0.0000 H   0  0  0  0  0  0  0  0  0  0  0  0
   -6.3379    4.1398    0.0000 C   0  0  0  0  0  0  0  0  0  0  0  0
   -6.0052    5.7047    0.0000 H   0  0  0  0  0  0  0  0  0  0  0  0
   -7.5269    5.2103    0.0000 H   0  0  0  0  0  0  0  0  0  0  0  0
   -4.8162    4.6341    0.0000 H   0  0  0  0  0  0  0  0  0  0  0  0
   -1.5999    0.0001    0.0000 C   0  0  0  0  0  0  0  0  0  0  0  0
    0.0001    0.0001    0.0000 C   0  0  0  0  0  0  0  0  0  0  0  0
    1.6001    0.0001    0.0000 C   0  0  0  0  0  0  0  0  0  0  0  0
    3.2000    0.0001    0.0000 C   0  0  0  0  0  0  0  0  0  0  0  0
    4.8000    0.0001    0.0000 C   0  0  0  0  0  0  0  0  0  0  0  0
    5.6000    1.3857    0.0000 O   0  0  0  0  0  0  0  0  0  0  0  0
    5.6000   -1.3857    0.0000 C   0  0  0  0  0  0  0  0  0  0  0  0
    6.4000   -2.7713    0.0000 H   0  0  0  0  0  0  0  0  0  0  0  0
    7.2000   -1.3857    0.0000 H   0  0  0  0  0  0  0  0  0  0  0  0
    4.8000   -2.7713    0.0000 H   0  0  0  0  0  0  0  0  0  0  0  0
    3.2000   -1.6000    0.0000 H   0  0  0  0  0  0  0  0  0  0  0  0
    3.2000    1.6000    0.0000 H   0  0  0  0  0  0  0  0  0  0  0  0
    1.6001   -1.6000    0.0000 H   0  0  0  0  0  0  0  0  0  0  0  0
    1.6001    1.6000    0.0000 H   0  0  0  0  0  0  0  0  0  0  0  0
    0.0001   -1.6000    0.0000 H   0  0  0  0  0  0  0  0  0  0  0  0
    0.0001    1.6000    0.0000 H   0  0  0  0  0  0  0  0  0  0  0  0
   -1.5999   -1.6000    0.0000 H   0  0  0  0  0  0  0  0  0  0  0  0
   -1.5999    1.6000    0.0000 H   0  0  0  0  0  0  0  0  0  0  0  0
  1  2  1  0  0  0  0
  2  3  2  0  0  0  0
  2  4  1  0  0  0  0
  4  5  4  0  0  0  0
  5  6  4  0  0  0  0
  6  7  4  0  0  0  0
  7  8  4  0  0  0  0
  8  4  4  0  0  0  0
  8  9  1  0  0  0  0
  9 10  1  0  0  0  0
 10 11  1  0  0  0  0
 10 12  1  0  0  0  0
 10 13  1  0  0  0  0
  9 14  1  0  0  0  0
 14  1  1  0  0  0  0
 14 15  2  0  0  0  0
  6 16  1  0  0  0  0
  5 17  1  0  0  0  0
 17 18  1  0  0  0  0
 17 19  1  0  0  0  0
 17 20  1  0  0  0  0
  1 21  1  0  0  0  0
 21 22  1  0  0  0  0
 22 23  1  0  0  0  0
 23 24  1  0  0  0  0
 24 25  1  0  0  0  0
 25 26  2  0  0  0  0
 25 27  1  0  0  0  0
 27 28  1  0  0  0  0
 27 29  1  0  0  0  0
 27 30  1  0  0  0  0
 24 31  1  0  0  0  0
 24 32  1  0  0  0  0
 23 33  1  0  0  0  0
 23 34  1  0  0  0  0
 22 35  1  0  0  0  0
 22 36  1  0  0  0  0
 21 37  1  0  0  0  0
 21 38  1  0  0  0  0
M  END
> <CAS>
6493-05-6

> <NAME>
Pentoxifylline

> <preferred_name>
Pentoxifylline

> <iupac>
3,7-dimethyl-1-(5-oxohexyl)-3,7-dihydro-1H-purine-2,6-dione

> <SMILES>
CC(=O)CCCCN1C(=O)N(C)c2[n]c[n](C)c2C1=O

> <Canonical_QSARr>
CC(=O)CCCCN1C(=O)N(C)c2[n]c[n](C)c2C1=O

> <InChI_Code_QSARr>
InChI=1S/C13H18N4O3/c1-9(18)6-4-5-7-17-12(19)10-11(14-8-15(10)2)16(3)13(17)20/h8H,4-7H2,1-3H3

> <InChI Key_QSARr>
BYPFEZZEUUWMEJ-UHFFFAOYSA-N

> <Salt_Solvent>
?

> <WS Temperature>
25

> <WS Reference>
MERCK INDEX (1996)

> <dsstox_substance_id>
DTXSID7023437

> <LogMolar>
-0.558

$$$$
6620-95-7
  -INDIGO-01081615412D

 25 24  0  0  0  0  0  0  0  0999 V2000
   -2.4514   -2.0569    0.0000 O   0  0  0  0  0  0  0  0  0  0  0  0
   -1.2257   -1.0284    0.0000 C   0  0  0  0  0  0  0  0  0  0  0  0
    0.0000   -0.0000    0.0000 C   0  0  0  0  0  0  0  0  0  0  0  0
   -0.8000    1.3857    0.0000 C   0  0  0  0  0  0  0  0  0  0  0  0
    0.0000    2.7713    0.0000 O   0  0  0  0  0  0  0  0  0  0  0  0
   -2.4001    1.3857    0.0000 O   0  0  0  0  0  0  0  0  0  0  0  0
   -3.2000    2.7713    0.0000 H   0  0  0  0  0  0  0  0  0  0  0  0
    1.3857    0.8000    0.0000 N   0  0  0  0  0  0  0  0  0  0  0  0
    2.7712   -0.0000    0.0000 C   0  0  0  0  0  0  0  0  0  0  0  0
    4.1569    0.8000    0.0000 C   0  0  0  0  0  0  0  0  0  0  0  0
    5.5425    1.6000    0.0000 C   0  0  0  0  0  0  0  0  0  0  0  0
    6.9282    2.4000    0.0000 O   0  0  0  0  0  0  0  0  0  0  0  0
    6.9282    4.0000    0.0000 H   0  0  0  0  0  0  0  0  0  0  0  0
    6.5710    0.3743    0.0000 H   0  0  0  0  0  0  0  0  0  0  0  0
    4.7426    2.9857    0.0000 H   0  0  0  0  0  0  0  0  0  0  0  0
    4.9570   -0.5856    0.0000 N   0  0  0  0  0  0  0  0  0  0  0  0
    4.1569   -1.9713    0.0000 H   0  0  0  0  0  0  0  0  0  0  0  0
    6.5326   -0.8635    0.0000 H   0  0  0  0  0  0  0  0  0  0  0  0
    3.3569    2.1857    0.0000 H   0  0  0  0  0  0  0  0  0  0  0  0
    2.7712   -1.6000    0.0000 O   0  0  0  0  0  0  0  0  0  0  0  0
    1.3857    2.4000    0.0000 H   0  0  0  0  0  0  0  0  0  0  0  0
    0.8000   -1.3856    0.0000 H   0  0  0  0  0  0  0  0  0  0  0  0
   -2.2542    0.1973    0.0000 H   0  0  0  0  0  0  0  0  0  0  0  0
   -0.1972   -2.2541    0.0000 H   0  0  0  0  0  0  0  0  0  0  0  0
   -2.1735   -3.6326    0.0000 H   0  0  0  0  0  0  0  0  0  0  0  0
  1  2  1  0  0  0  0
  2  3  1  0  0  0  0
  3  4  1  0  0  0  0
  4  5  2  0  0  0  0
  4  6  1  0  0  0  0
  6  7  1  0  0  0  0
  3  8  1  0  0  0  0
  8  9  1  0  0  0  0
  9 10  1  0  0  0  0
 10 11  1  0  0  0  0
 11 12  1  0  0  0  0
 12 13  1  0  0  0  0
 11 14  1  0  0  0  0
 11 15  1  0  0  0  0
 10 16  1  0  0  0  0
 16 17  1  0  0  0  0
 16 18  1  0  0  0  0
 10 19  1  0  0  0  0
  9 20  2  0  0  0  0
  8 21  1  0  0  0  0
  3 22  1  0  0  0  0
  2 23  1  0  0  0  0
  2 24  1  0  0  0  0
  1 25  1  0  0  0  0
M  END
> <CAS>
6620-95-7

> <NAME>
L-Serine, N-L-seryl-

> <preferred_name>
PUBCHEM_71375649

> <iupac>
C6H12N2O5

> <SMILES>
N[C@H](CO)C(=O)N[C@@H](CO)C(O)=O

> <Canonical_QSARr>
NC(CO)C(=O)NC(CO)C(O)=O

> <InChI_Code_QSARr>
InChI=1S/C6H12N2O5/c7-3(1-9)5(11)8-4(2-10)6(12)13/h3-4,9-10H,1-2,7H2,(H,8,11)(H,12,13)

> <InChI Key_QSARr>
XZKQVQKUZMAADP-UHFFFAOYSA-N

> <Salt_Solvent>
?

> <WS Temperature>


> <WS Reference>
BEILSTEIN

> <dsstox_substance_id>
DTXSID90798383

> <LogMolar>
-0.5847

$$$$
6724-71-6
  -INDIGO-01081615412D

 26 27  0  0  0  0  0  0  0  0999 V2000
    0.9214    4.0364    0.0000 O   0  0  0  0  0  0  0  0  0  0  0  0
    0.2706    2.5746    0.0000 C   0  0  0  0  0  0  0  0  0  0  0  0
   -1.2944    2.2420    0.0000 C   0  0  0  0  0  0  0  0  0  0  0  0
   -1.4617    3.8332    0.0000 H   0  0  0  0  0  0  0  0  0  0  0  0
   -2.8944    2.2420    0.0000 H   0  0  0  0  0  0  0  0  0  0  0  0
   -1.4617    0.6508    0.0000 C   0  0  0  0  0  0  0  0  0  0  0  0
   -3.0267    0.9834    0.0000 H   0  0  0  0  0  0  0  0  0  0  0  0
   -1.9560   -0.8710    0.0000 H   0  0  0  0  0  0  0  0  0  0  0  0
   -0.0000    0.0000    0.0000 C   0  0  0  0  0  0  0  0  0  0  0  0
    1.4380   -0.7014    0.0000 C   0  0  0  0  0  0  0  0  0  0  0  0
    1.5496   -2.2975    0.0000 H   0  0  0  0  0  0  0  0  0  0  0  0
    2.9761   -1.1424    0.0000 H   0  0  0  0  0  0  0  0  0  0  0  0
    0.2871   -1.8128    0.0000 H   0  0  0  0  0  0  0  0  0  0  0  0
   -0.8000   -1.3856    0.0000 H   0  0  0  0  0  0  0  0  0  0  0  0
    1.0706    1.1891    0.0000 N   0  0  0  0  0  0  0  0  0  0  0  0
    2.6618    1.0218    0.0000 C   0  0  0  0  0  0  0  0  0  0  0  0
    3.7734   -0.1291    0.0000 C   0  0  0  0  0  0  0  0  0  0  0  0
    4.1603   -1.6816    0.0000 H   0  0  0  0  0  0  0  0  0  0  0  0
    5.3258    0.2579    0.0000 C   0  0  0  0  0  0  0  0  0  0  0  0
    6.4372   -0.8930    0.0000 H   0  0  0  0  0  0  0  0  0  0  0  0
    5.7668    1.7960    0.0000 C   0  0  0  0  0  0  0  0  0  0  0  0
    7.3193    2.1830    0.0000 H   0  0  0  0  0  0  0  0  0  0  0  0
    4.6554    2.9469    0.0000 C   0  0  0  0  0  0  0  0  0  0  0  0
    5.0963    4.4849    0.0000 H   0  0  0  0  0  0  0  0  0  0  0  0
    3.1029    2.5598    0.0000 C   0  0  0  0  0  0  0  0  0  0  0  0
    1.9915    3.7108    0.0000 H   0  0  0  0  0  0  0  0  0  0  0  0
  1  2  2  0  0  0  0
  2  3  1  0  0  0  0
  3  4  1  0  0  0  0
  3  5  1  0  0  0  0
  3  6  1  0  0  0  0
  6  7  1  0  0  0  0
  6  8  1  0  0  0  0
  6  9  1  0  0  0  0
  9 10  1  0  0  0  0
 10 11  1  0  0  0  0
 10 12  1  0  0  0  0
 10 13  1  0  0  0  0
  9 14  1  0  0  0  0
  9 15  1  0  0  0  0
 15  2  1  0  0  0  0
 15 16  1  0  0  0  0
 16 17  4  0  0  0  0
 17 18  1  0  0  0  0
 17 19  4  0  0  0  0
 19 20  1  0  0  0  0
 19 21  4  0  0  0  0
 21 22  1  0  0  0  0
 21 23  4  0  0  0  0
 23 24  1  0  0  0  0
 23 25  4  0  0  0  0
 25 16  4  0  0  0  0
 25 26  1  0  0  0  0
M  END
> <CAS>
6724-71-6

> <NAME>
2-Pyrrolidinone, 5-methyl-1-phenyl-

> <preferred_name>
5-methyl-1-phenylpyrrolidin-2-one

> <iupac>
C11H13NO

> <SMILES>
CC1CCC(=O)N1c1ccccc1

> <Canonical_QSARr>
CC1CCC(=O)N1c1ccccc1

> <InChI_Code_QSARr>
InChI=1S/C11H13NO/c1-9-7-8-11(13)12(9)10-5-3-2-4-6-10/h2-6,9H,7-8H2,1H3

> <InChI Key_QSARr>
VKSABXHARNALNR-UHFFFAOYSA-N

> <Salt_Solvent>
?

> <WS Temperature>
20

> <WS Reference>
BEILSTEIN

> <dsstox_substance_id>
DTXSID80294647

> <LogMolar>
-0.8457

$$$$
6744-87-2
  -INDIGO-01081615412D

 29 29  0  0  0  0  0  0  0  0999 V2000
   -5.5425   -0.0001    0.0000 C   0  0  0  0  0  0  0  0  0  0  0  0
   -6.9282   -0.8000    0.0000 C   0  0  0  0  0  0  0  0  0  0  0  0
   -8.3138   -0.0001    0.0000 H   0  0  0  0  0  0  0  0  0  0  0  0
   -6.9282   -2.4000    0.0000 C   0  0  0  0  0  0  0  0  0  0  0  0
   -8.3138   -3.2001    0.0000 H   0  0  0  0  0  0  0  0  0  0  0  0
   -5.5425   -3.2001    0.0000 C   0  0  0  0  0  0  0  0  0  0  0  0
   -5.5425   -4.8000    0.0000 H   0  0  0  0  0  0  0  0  0  0  0  0
   -4.1569   -2.4000    0.0000 C   0  0  0  0  0  0  0  0  0  0  0  0
   -2.7712   -3.2001    0.0000 N   0  0  0  0  0  0  0  0  0  0  0  0
   -2.7712   -4.8000    0.0000 O   0  0  0  0  0  0  0  0  0  0  0  0
   -1.3857   -2.4000    0.0000 O   0  0  0  0  0  0  0  0  0  0  0  0
   -4.1569   -0.8000    0.0000 C   0  0  0  0  0  0  0  0  0  0  0  0
   -2.7714   -0.0001    0.0000 C   0  0  0  0  0  0  0  0  0  0  0  0
   -1.3857   -0.8000    0.0000 O   0  0  0  0  0  0  0  0  0  0  0  0
   -0.0000   -0.0001    0.0000 C   0  0  0  0  0  0  0  0  0  0  0  0
    1.3856    0.8000    0.0000 C   0  0  0  0  0  0  0  0  0  0  0  0
    2.7713    1.6000    0.0000 H   0  0  0  0  0  0  0  0  0  0  0  0
    2.7713   -0.0001    0.0000 H   0  0  0  0  0  0  0  0  0  0  0  0
    1.3856    2.4001    0.0000 H   0  0  0  0  0  0  0  0  0  0  0  0
    0.8000   -1.3857    0.0000 C   0  0  0  0  0  0  0  0  0  0  0  0
    1.5999   -2.7713    0.0000 H   0  0  0  0  0  0  0  0  0  0  0  0
    2.4000   -1.3857    0.0000 H   0  0  0  0  0  0  0  0  0  0  0  0
   -0.0000   -2.7713    0.0000 H   0  0  0  0  0  0  0  0  0  0  0  0
   -0.7999    1.3856    0.0000 H   0  0  0  0  0  0  0  0  0  0  0  0
   -2.7714    1.6000    0.0000 O   0  0  0  0  0  0  0  0  0  0  0  0
   -5.5425    1.6000    0.0000 C   0  0  0  0  0  0  0  0  0  0  0  0
   -6.9282    2.4001    0.0000 O   0  0  0  0  0  0  0  0  0  0  0  0
   -6.9282    4.0000    0.0000 H   0  0  0  0  0  0  0  0  0  0  0  0
   -4.1569    2.4001    0.0000 O   0  0  0  0  0  0  0  0  0  0  0  0
  1  2  4  0  0  0  0
  2  3  1  0  0  0  0
  2  4  4  0  0  0  0
  4  5  1  0  0  0  0
  4  6  4  0  0  0  0
  6  7  1  0  0  0  0
  6  8  4  0  0  0  0
  8  9  1  0  0  0  0
  9 10  2  0  0  0  0
  9 11  1  0  0  0  0
  8 12  4  0  0  0  0
 12  1  4  0  0  0  0
 12 13  1  0  0  0  0
 13 14  1  0  0  0  0
 14 15  1  0  0  0  0
 15 16  1  0  0  0  0
 16 17  1  0  0  0  0
 16 18  1  0  0  0  0
 16 19  1  0  0  0  0
 15 20  1  0  0  0  0
 20 21  1  0  0  0  0
 20 22  1  0  0  0  0
 20 23  1  0  0  0  0
 15 24  1  0  0  0  0
 13 25  2  0  0  0  0
  1 26  1  0  0  0  0
 26 27  1  0  0  0  0
 27 28  1  0  0  0  0
 26 29  2  0  0  0  0
M  CHG  2   9   1  11  -1
M  END
> <CAS>
6744-87-2

> <NAME>
Phthalic acid, 3-nitro-, 2-isopropyl ester

> <preferred_name>


> <iupac>


> <SMILES>
CC(C)OC(=O)c1c(cccc1[N+]([O-])=O)C(O)=O

> <Canonical_QSARr>
CC(C)OC(=O)c1c(cccc1[N+]([O-])=O)C(O)=O

> <InChI_Code_QSARr>
InChI=1S/C11H11NO6/c1-6(2)18-11(15)9-7(10(13)14)4-3-5-8(9)12(16)17/h3-6H,1-2H3,(H,13,14)

> <InChI Key_QSARr>
VLYOOXLMUKHFNY-UHFFFAOYSA-N

> <Salt_Solvent>
?

> <WS Temperature>
20

> <WS Reference>
BEILSTEIN

> <dsstox_substance_id>


> <LogMolar>
-2.4897

$$$$
6806-76-4
  -INDIGO-01081615412D

 21 20  0  0  0  0  0  0  0  0999 V2000
    5.7148   -0.3188    0.0000 C   0  0  0  0  0  0  0  0  0  0  0  0
    4.4891   -1.3473    0.0000 C   0  0  0  0  0  0  0  0  0  0  0  0
    2.9857   -0.8000    0.0000 C   0  0  0  0  0  0  0  0  0  0  0  0
    1.6000    0.0000    0.0000 O   0  0  0  0  0  0  0  0  0  0  0  0
    0.0000    0.0000    0.0000 C   0  0  0  0  0  0  0  0  0  0  0  0
    0.0000    1.6000    0.0000 C   0  0  0  0  0  0  0  0  0  0  0  0
    0.0000    3.2000    0.0000 O   0  0  0  0  0  0  0  0  0  0  0  0
   -1.3856    4.0000    0.0000 H   0  0  0  0  0  0  0  0  0  0  0  0
   -1.5999    1.6000    0.0000 H   0  0  0  0  0  0  0  0  0  0  0  0
    1.6000    1.6000    0.0000 H   0  0  0  0  0  0  0  0  0  0  0  0
   -0.2779   -1.5756    0.0000 C   0  0  0  0  0  0  0  0  0  0  0  0
   -0.5556   -3.1514    0.0000 O   0  0  0  0  0  0  0  0  0  0  0  0
   -2.0592   -3.6986    0.0000 H   0  0  0  0  0  0  0  0  0  0  0  0
   -1.8535   -1.2978    0.0000 H   0  0  0  0  0  0  0  0  0  0  0  0
    1.2979   -1.8536    0.0000 H   0  0  0  0  0  0  0  0  0  0  0  0
   -1.5999    0.0000    0.0000 H   0  0  0  0  0  0  0  0  0  0  0  0
    3.5328    0.7035    0.0000 H   0  0  0  0  0  0  0  0  0  0  0  0
    2.4384   -2.3035    0.0000 H   0  0  0  0  0  0  0  0  0  0  0  0
    4.7670   -2.9229    0.0000 H   0  0  0  0  0  0  0  0  0  0  0  0
    7.2183   -0.8660    0.0000 H   0  0  0  0  0  0  0  0  0  0  0  0
    5.4370    1.2569    0.0000 H   0  0  0  0  0  0  0  0  0  0  0  0
  1  2  2  0  0  0  0
  2  3  1  0  0  0  0
  3  4  1  0  0  0  0
  4  5  1  0  0  0  0
  5  6  1  0  0  0  0
  6  7  1  0  0  0  0
  7  8  1  0  0  0  0
  6  9  1  0  0  0  0
  6 10  1  0  0  0  0
  5 11  1  0  0  0  0
 11 12  1  0  0  0  0
 12 13  1  0  0  0  0
 11 14  1  0  0  0  0
 11 15  1  0  0  0  0
  5 16  1  0  0  0  0
  3 17  1  0  0  0  0
  3 18  1  0  0  0  0
  2 19  1  0  0  0  0
  1 20  1  0  0  0  0
  1 21  1  0  0  0  0
M  END
> <CAS>
6806-76-4

> <NAME>
1,3-Propanediol, 2-(2-propenyloxy)-

> <preferred_name>
1,?-Propanediol, 2(or 3)-(2-propenyloxy)-

> <iupac>
2-prop-2-enoxypropane-1,3-diol

> <SMILES>
C=CCOC(CO)CO

> <Canonical_QSARr>
C=CCOC(CO)CO

> <InChI_Code_QSARr>
InChI=1S/C6H12O3/c1-2-3-9-6(4-7)5-8/h2,6-8H,1,3-5H2

> <InChI Key_QSARr>
IGDCJKDZZUALAO-UHFFFAOYSA-N

> <Salt_Solvent>
?

> <WS Temperature>


> <WS Reference>
BEILSTEIN

> <dsstox_substance_id>
DTXSID5067057

> <LogMolar>
0.481

$$$$
6842-62-2
  -INDIGO-01081615412D

 23 24  0  0  0  0  0  0  0  0999 V2000
    1.6000    0.0001    0.0000 O   0  0  0  0  0  0  0  0  0  0  0  0
    2.9857   -0.8000    0.0000 C   0  0  0  0  0  0  0  0  0  0  0  0
    2.9857   -2.4000    0.0000 C   0  0  0  0  0  0  0  0  0  0  0  0
    1.6000   -3.2000    0.0000 H   0  0  0  0  0  0  0  0  0  0  0  0
    4.3714   -3.2000    0.0000 C   0  0  0  0  0  0  0  0  0  0  0  0
    4.3714   -4.8000    0.0000 H   0  0  0  0  0  0  0  0  0  0  0  0
    5.7569   -2.4000    0.0000 C   0  0  0  0  0  0  0  0  0  0  0  0
    7.1426   -3.2000    0.0000 Cl  0  0  0  0  0  0  0  0  0  0  0  0
    5.7569   -0.8000    0.0000 C   0  0  0  0  0  0  0  0  0  0  0  0
    7.1426    0.0001    0.0000 H   0  0  0  0  0  0  0  0  0  0  0  0
    4.3714    0.0001    0.0000 C   0  0  0  0  0  0  0  0  0  0  0  0
    4.3714    1.6000    0.0000 H   0  0  0  0  0  0  0  0  0  0  0  0
   -0.0000    0.0001    0.0000 C   0  0  0  0  0  0  0  0  0  0  0  0
   -0.8000    1.3856    0.0000 C   0  0  0  0  0  0  0  0  0  0  0  0
   -0.0000    2.7713    0.0000 H   0  0  0  0  0  0  0  0  0  0  0  0
   -2.4000    1.3856    0.0000 C   0  0  0  0  0  0  0  0  0  0  0  0
   -3.2000    2.7713    0.0000 Cl  0  0  0  0  0  0  0  0  0  0  0  0
   -3.2000    0.0001    0.0000 C   0  0  0  0  0  0  0  0  0  0  0  0
   -4.8000    0.0001    0.0000 H   0  0  0  0  0  0  0  0  0  0  0  0
   -2.4000   -1.3856    0.0000 C   0  0  0  0  0  0  0  0  0  0  0  0
   -3.2000   -2.7713    0.0000 H   0  0  0  0  0  0  0  0  0  0  0  0
   -0.8000   -1.3856    0.0000 C   0  0  0  0  0  0  0  0  0  0  0  0
   -0.0000   -2.7713    0.0000 H   0  0  0  0  0  0  0  0  0  0  0  0
  1  2  1  0  0  0  0
  2  3  4  0  0  0  0
  3  4  1  0  0  0  0
  3  5  4  0  0  0  0
  5  6  1  0  0  0  0
  5  7  4  0  0  0  0
  7  8  1  0  0  0  0
  7  9  4  0  0  0  0
  9 10  1  0  0  0  0
  9 11  4  0  0  0  0
 11  2  4  0  0  0  0
 11 12  1  0  0  0  0
  1 13  1  0  0  0  0
 13 14  4  0  0  0  0
 14 15  1  0  0  0  0
 14 16  4  0  0  0  0
 16 17  1  0  0  0  0
 16 18  4  0  0  0  0
 18 19  1  0  0  0  0
 18 20  4  0  0  0  0
 20 21  1  0  0  0  0
 20 22  4  0  0  0  0
 22 13  4  0  0  0  0
 22 23  1  0  0  0  0
M  END
> <CAS>
6842-62-2

> <NAME>
3,4'-Dichlorodiphenyl ether

> <preferred_name>


> <iupac>


> <SMILES>
Clc1ccc(cc1)Oc1cc(Cl)ccc1

> <Canonical_QSARr>
Clc1ccc(cc1)Oc1cc(Cl)ccc1

> <InChI_Code_QSARr>
InChI=1S/C12H8Cl2O/c13-9-4-6-11(7-5-9)15-12-3-1-2-10(14)8-12/h1-8H

> <InChI Key_QSARr>
HPRGYUWRGCTBAV-UHFFFAOYSA-N

> <Salt_Solvent>
?

> <WS Temperature>
25

> <WS Reference>
KURZ,J & BALLSCHMITER,K (1999)

> <dsstox_substance_id>


> <LogMolar>
-4.7701

$$$$
6923-22-4
  -INDIGO-01081615412D

 28 27  0  0  0  0  0  0  0  0999 V2000
    0.0001   -0.0000    0.0000 P   0  0  0  0  0  0  0  0  0  0  0  0
   -1.3856   -0.8000    0.0000 O   0  0  0  0  0  0  0  0  0  0  0  0
   -2.7712   -0.0000    0.0000 C   0  0  0  0  0  0  0  0  0  0  0  0
   -4.1569    0.8000    0.0000 H   0  0  0  0  0  0  0  0  0  0  0  0
   -4.1569   -0.8000    0.0000 H   0  0  0  0  0  0  0  0  0  0  0  0
   -2.7712    1.6000    0.0000 H   0  0  0  0  0  0  0  0  0  0  0  0
   -0.8000    1.3857    0.0000 O   0  0  0  0  0  0  0  0  0  0  0  0
    0.0001    2.7713    0.0000 C   0  0  0  0  0  0  0  0  0  0  0  0
   -0.8000    4.1569    0.0000 H   0  0  0  0  0  0  0  0  0  0  0  0
    0.8000    4.1569    0.0000 H   0  0  0  0  0  0  0  0  0  0  0  0
    1.6000    2.7713    0.0000 H   0  0  0  0  0  0  0  0  0  0  0  0
    0.8000   -1.3857    0.0000 O   0  0  0  0  0  0  0  0  0  0  0  0
    1.3856    0.8000    0.0000 O   0  0  0  0  0  0  0  0  0  0  0  0
    2.7714   -0.0000    0.0000 C   0  0  0  0  0  0  0  0  0  0  0  0
    2.7714   -1.6000    0.0000 C   0  0  0  0  0  0  0  0  0  0  0  0
    2.7714   -3.2000    0.0000 H   0  0  0  0  0  0  0  0  0  0  0  0
    4.1569   -2.4000    0.0000 H   0  0  0  0  0  0  0  0  0  0  0  0
    1.3856   -2.4000    0.0000 H   0  0  0  0  0  0  0  0  0  0  0  0
    4.1569    0.8000    0.0000 C   0  0  0  0  0  0  0  0  0  0  0  0
    5.5425   -0.0000    0.0000 C   0  0  0  0  0  0  0  0  0  0  0  0
    6.9282    0.8000    0.0000 N   0  0  0  0  0  0  0  0  0  0  0  0
    8.3139   -0.0000    0.0000 C   0  0  0  0  0  0  0  0  0  0  0  0
    9.6995   -0.8000    0.0000 H   0  0  0  0  0  0  0  0  0  0  0  0
    9.6995    0.8000    0.0000 H   0  0  0  0  0  0  0  0  0  0  0  0
    8.3139   -1.6000    0.0000 H   0  0  0  0  0  0  0  0  0  0  0  0
    6.9282    2.3999    0.0000 H   0  0  0  0  0  0  0  0  0  0  0  0
    5.5425   -1.6000    0.0000 O   0  0  0  0  0  0  0  0  0  0  0  0
    4.1569    2.3999    0.0000 H   0  0  0  0  0  0  0  0  0  0  0  0
  1  2  1  0  0  0  0
  2  3  1  0  0  0  0
  3  4  1  0  0  0  0
  3  5  1  0  0  0  0
  3  6  1  0  0  0  0
  1  7  1  0  0  0  0
  7  8  1  0  0  0  0
  8  9  1  0  0  0  0
  8 10  1  0  0  0  0
  8 11  1  0  0  0  0
  1 12  2  0  0  0  0
  1 13  1  0  0  0  0
 13 14  1  0  0  0  0
 14 15  1  0  0  0  0
 15 16  1  0  0  0  0
 15 17  1  0  0  0  0
 15 18  1  0  0  0  0
 14 19  2  0  0  0  0
 19 20  1  0  0  0  0
 20 21  1  0  0  0  0
 21 22  1  0  0  0  0
 22 23  1  0  0  0  0
 22 24  1  0  0  0  0
 22 25  1  0  0  0  0
 21 26  1  0  0  0  0
 20 27  2  0  0  0  0
 19 28  1  0  0  0  0
M  END
> <CAS>
6923-22-4

> <NAME>
AZODRIN

> <preferred_name>
Monocrotophos

> <iupac>
dimethyl (2E)-4-(methylamino)-4-oxobut-2-en-2-yl phosphate

> <SMILES>
C/C(=C\C(=O)NC)/OP(=O)(OC)OC

> <Canonical_QSARr>
CC(=CC(=O)NC)OP(=O)(OC)OC

> <InChI_Code_QSARr>
InChI=1S/C7H14NO5P/c1-6(5-7(9)8-2)13-14(10,11-3)12-4/h5H,1-4H3,(H,8,9)/b6-5+

> <InChI Key_QSARr>
KRTSDMXIXPKRQR-AATRIKPKSA-N

> <Salt_Solvent>
?

> <WS Temperature>
20

> <WS Reference>
SHIU,WY ET AL. (1990)

> <dsstox_substance_id>
DTXSID9034816

> <LogMolar>
0.6514

$$$$
6988-21-2
  -INDIGO-01081615412D

 29 30  0  0  0  0  0  0  0  0999 V2000
   -4.8000   -0.0001    0.0000 C   0  0  0  0  0  0  0  0  0  0  0  0
   -5.6001    1.3857    0.0000 N   0  0  0  0  0  0  0  0  0  0  0  0
   -7.1999    1.3857    0.0000 C   0  0  0  0  0  0  0  0  0  0  0  0
   -8.8000    1.3857    0.0000 H   0  0  0  0  0  0  0  0  0  0  0  0
   -8.0000    2.7713    0.0000 H   0  0  0  0  0  0  0  0  0  0  0  0
   -8.0000   -0.0001    0.0000 H   0  0  0  0  0  0  0  0  0  0  0  0
   -4.8000    2.7713    0.0000 H   0  0  0  0  0  0  0  0  0  0  0  0
   -3.2000   -0.0001    0.0000 O   0  0  0  0  0  0  0  0  0  0  0  0
   -2.3999   -1.3857    0.0000 C   0  0  0  0  0  0  0  0  0  0  0  0
   -3.2000   -2.7712    0.0000 C   0  0  0  0  0  0  0  0  0  0  0  0
   -4.8000   -2.7712    0.0000 H   0  0  0  0  0  0  0  0  0  0  0  0
   -2.3999   -4.1570    0.0000 C   0  0  0  0  0  0  0  0  0  0  0  0
   -3.2000   -5.5426    0.0000 H   0  0  0  0  0  0  0  0  0  0  0  0
   -0.8001   -4.1570    0.0000 C   0  0  0  0  0  0  0  0  0  0  0  0
   -0.0000   -5.5426    0.0000 H   0  0  0  0  0  0  0  0  0  0  0  0
   -0.0000   -2.7712    0.0000 C   0  0  0  0  0  0  0  0  0  0  0  0
    1.6000   -2.7712    0.0000 H   0  0  0  0  0  0  0  0  0  0  0  0
   -0.8001   -1.3857    0.0000 C   0  0  0  0  0  0  0  0  0  0  0  0
   -0.0000   -0.0001    0.0000 C   0  0  0  0  0  0  0  0  0  0  0  0
    1.2943   -0.9404    0.0000 O   0  0  0  0  0  0  0  0  0  0  0  0
    2.5889    0.0001    0.0000 C   0  0  0  0  0  0  0  0  0  0  0  0
    3.3889   -1.3857    0.0000 H   0  0  0  0  0  0  0  0  0  0  0  0
    4.0505    0.6508    0.0000 H   0  0  0  0  0  0  0  0  0  0  0  0
    2.0944    1.5217    0.0000 C   0  0  0  0  0  0  0  0  0  0  0  0
    3.6595    1.8544    0.0000 H   0  0  0  0  0  0  0  0  0  0  0  0
    1.9271    3.1129    0.0000 H   0  0  0  0  0  0  0  0  0  0  0  0
    0.4945    1.5217    0.0000 O   0  0  0  0  0  0  0  0  0  0  0  0
   -1.4617    0.6508    0.0000 H   0  0  0  0  0  0  0  0  0  0  0  0
   -5.6001   -1.3857    0.0000 O   0  0  0  0  0  0  0  0  0  0  0  0
  1  2  1  0  0  0  0
  2  3  1  0  0  0  0
  3  4  1  0  0  0  0
  3  5  1  0  0  0  0
  3  6  1  0  0  0  0
  2  7  1  0  0  0  0
  1  8  1  0  0  0  0
  8  9  1  0  0  0  0
  9 10  4  0  0  0  0
 10 11  1  0  0  0  0
 10 12  4  0  0  0  0
 12 13  1  0  0  0  0
 12 14  4  0  0  0  0
 14 15  1  0  0  0  0
 14 16  4  0  0  0  0
 16 17  1  0  0  0  0
 16 18  4  0  0  0  0
 18  9  4  0  0  0  0
 18 19  1  0  0  0  0
 19 20  1  0  0  0  0
 20 21  1  0  0  0  0
 21 22  1  0  0  0  0
 21 23  1  0  0  0  0
 21 24  1  0  0  0  0
 24 25  1  0  0  0  0
 24 26  1  0  0  0  0
 24 27  1  0  0  0  0
 27 19  1  0  0  0  0
 19 28  1  0  0  0  0
  1 29  2  0  0  0  0
M  END
> <CAS>
6988-21-2

> <NAME>
DIOXACARB

> <preferred_name>
Dioxacarb

> <iupac>
2-(1,3-dioxolan-2-yl)phenyl methylcarbamate

> <SMILES>
CNC(=O)Oc1ccccc1C1OCCO1

> <Canonical_QSARr>
CNC(=O)Oc1ccccc1C1OCCO1

> <InChI_Code_QSARr>
InChI=1S/C11H13NO4/c1-12-11(13)16-9-5-3-2-4-8(9)10-14-6-7-15-10/h2-5,10H,6-7H2,1H3,(H,12,13)

> <InChI Key_QSARr>
SDKQRNRRDYRQKY-UHFFFAOYSA-N

> <Salt_Solvent>
?

> <WS Temperature>
20

> <WS Reference>
SHIU,WY ET AL. (1990)

> <dsstox_substance_id>
DTXSID2041886

> <LogMolar>
-1.5706

$$$$
7068-83-9
  -INDIGO-01081615412D

 20 19  0  0  0  0  0  0  0  0999 V2000
    5.6000   -1.3856    0.0000 O   0  0  0  0  0  0  0  0  0  0  0  0
    4.0000   -1.3856    0.0000 N   0  0  0  0  0  0  0  0  0  0  0  0
    3.2001   -0.0000    0.0000 N   0  0  0  0  0  0  0  0  0  0  0  0
    4.0000    1.3856    0.0000 C   0  0  0  0  0  0  0  0  0  0  0  0
    4.8000    2.7713    0.0000 H   0  0  0  0  0  0  0  0  0  0  0  0
    5.6000    1.3856    0.0000 H   0  0  0  0  0  0  0  0  0  0  0  0
    3.2001    2.7713    0.0000 H   0  0  0  0  0  0  0  0  0  0  0  0
    1.6000   -0.0000    0.0000 C   0  0  0  0  0  0  0  0  0  0  0  0
    0.0000   -0.0000    0.0000 C   0  0  0  0  0  0  0  0  0  0  0  0
   -1.5999   -0.0000    0.0000 C   0  0  0  0  0  0  0  0  0  0  0  0
   -3.2000   -0.0000    0.0000 C   0  0  0  0  0  0  0  0  0  0  0  0
   -4.8000   -0.0000    0.0000 H   0  0  0  0  0  0  0  0  0  0  0  0
   -4.0000   -1.3856    0.0000 H   0  0  0  0  0  0  0  0  0  0  0  0
   -4.0000    1.3856    0.0000 H   0  0  0  0  0  0  0  0  0  0  0  0
   -1.5999   -1.6000    0.0000 H   0  0  0  0  0  0  0  0  0  0  0  0
   -1.5999    1.6000    0.0000 H   0  0  0  0  0  0  0  0  0  0  0  0
    0.0000    1.6000    0.0000 H   0  0  0  0  0  0  0  0  0  0  0  0
    0.0000   -1.6000    0.0000 H   0  0  0  0  0  0  0  0  0  0  0  0
    1.6000   -1.6000    0.0000 H   0  0  0  0  0  0  0  0  0  0  0  0
    1.6000    1.6000    0.0000 H   0  0  0  0  0  0  0  0  0  0  0  0
  1  2  2  0  0  0  0
  2  3  1  0  0  0  0
  3  4  1  0  0  0  0
  4  5  1  0  0  0  0
  4  6  1  0  0  0  0
  4  7  1  0  0  0  0
  3  8  1  0  0  0  0
  8  9  1  0  0  0  0
  9 10  1  0  0  0  0
 10 11  1  0  0  0  0
 11 12  1  0  0  0  0
 11 13  1  0  0  0  0
 11 14  1  0  0  0  0
 10 15  1  0  0  0  0
 10 16  1  0  0  0  0
  9 17  1  0  0  0  0
  9 18  1  0  0  0  0
  8 19  1  0  0  0  0
  8 20  1  0  0  0  0
M  END
> <CAS>
7068-83-9

> <NAME>
N-NITROSOMETHYLBUTYLAMINE

> <preferred_name>
Nitrosomethyl-N-butylamine

> <iupac>
N-butyl-N-methylnitrous amide

> <SMILES>
CCCCN(C)N=O

> <Canonical_QSARr>
CCCCN(C)N=O

> <InChI_Code_QSARr>
InChI=1S/C5H12N2O/c1-3-4-5-7(2)6-8/h3-5H2,1-2H3

> <InChI Key_QSARr>
PKTSCJXWLVREKX-UHFFFAOYSA-N

> <Salt_Solvent>
?

> <WS Temperature>
24

> <WS Reference>
MIRVISH,SS ET AL. (1976)

> <dsstox_substance_id>
DTXSID20220960

> <LogMolar>
-0.6996

$$$$
7147-89-9
  -INDIGO-01081615412D

 18 18  0  0  0  0  0  0  0  0999 V2000
    2.7713    1.6000    0.0000 C   0  0  0  0  0  0  0  0  0  0  0  0
    4.1569    2.4000    0.0000 N   0  0  0  0  0  0  0  0  0  0  0  0
    4.1569    4.0000    0.0000 O   0  0  0  0  0  0  0  0  0  0  0  0
    5.5426    1.6000    0.0000 O   0  0  0  0  0  0  0  0  0  0  0  0
    1.3856    2.4000    0.0000 C   0  0  0  0  0  0  0  0  0  0  0  0
    1.3856    4.0000    0.0000 H   0  0  0  0  0  0  0  0  0  0  0  0
    0.0000    1.6000    0.0000 C   0  0  0  0  0  0  0  0  0  0  0  0
   -1.3857    2.4000    0.0000 Cl  0  0  0  0  0  0  0  0  0  0  0  0
    0.0000    0.0000    0.0000 C   0  0  0  0  0  0  0  0  0  0  0  0
   -1.3856   -0.8000    0.0000 C   0  0  0  0  0  0  0  0  0  0  0  0
   -2.7713   -1.6000    0.0000 H   0  0  0  0  0  0  0  0  0  0  0  0
   -2.7713    0.0000    0.0000 H   0  0  0  0  0  0  0  0  0  0  0  0
   -1.3856   -2.4000    0.0000 H   0  0  0  0  0  0  0  0  0  0  0  0
    1.3856   -0.8000    0.0000 C   0  0  0  0  0  0  0  0  0  0  0  0
    1.3856   -2.4000    0.0000 H   0  0  0  0  0  0  0  0  0  0  0  0
    2.7713    0.0000    0.0000 C   0  0  0  0  0  0  0  0  0  0  0  0
    4.1570   -0.8000    0.0000 O   0  0  0  0  0  0  0  0  0  0  0  0
    4.1570   -2.4000    0.0000 H   0  0  0  0  0  0  0  0  0  0  0  0
  1  2  1  0  0  0  0
  2  3  1  0  0  0  0
  2  4  2  0  0  0  0
  1  5  4  0  0  0  0
  5  6  1  0  0  0  0
  5  7  4  0  0  0  0
  7  8  1  0  0  0  0
  7  9  4  0  0  0  0
  9 10  1  0  0  0  0
 10 11  1  0  0  0  0
 10 12  1  0  0  0  0
 10 13  1  0  0  0  0
  9 14  4  0  0  0  0
 14 15  1  0  0  0  0
 14 16  4  0  0  0  0
 16  1  4  0  0  0  0
 16 17  1  0  0  0  0
 17 18  1  0  0  0  0
M  CHG  2   2   1   3  -1
M  END
> <CAS>
7147-89-9

> <NAME>
4-CHLORO-5-METHYL-2-NITROPHENOL

> <preferred_name>
Phenol, 4-chloro-5-methyl-2-nitro-

> <iupac>
4-CHLORO-5-METHYL-2-NITROPHENOL

> <SMILES>
Cc1cc(O)c(cc1Cl)[N+]([O-])=O

> <Canonical_QSARr>
Cc1cc(O)c(cc1Cl)[N+]([O-])=O

> <InChI_Code_QSARr>
InChI=1S/C7H6ClNO3/c1-4-2-7(10)6(9(11)12)3-5(4)8/h2-3,10H,1H3

> <InChI Key_QSARr>
JBMGJOKJUYGIJH-UHFFFAOYSA-N

> <Salt_Solvent>
?

> <WS Temperature>
20

> <WS Reference>
SCHWARZENBACH,RP ET AL. (1988)

> <dsstox_substance_id>
DTXSID7064572

> <LogMolar>
-4.3901

$$$$
7242-59-3
  -INDIGO-01081615412D

 35 34  0  0  0  0  0  0  0  0999 V2000
   -3.9999   -1.3857    0.0000 P   0  0  0  0  0  0  0  0  0  0  0  0
   -2.6144   -2.1857    0.0000 O   0  0  0  0  0  0  0  0  0  0  0  0
   -5.3856   -0.5856    0.0000 O   0  0  0  0  0  0  0  0  0  0  0  0
   -5.3856    1.0144    0.0000 C   0  0  0  0  0  0  0  0  0  0  0  0
   -5.3856    2.6144    0.0000 H   0  0  0  0  0  0  0  0  0  0  0  0
   -6.7714    1.8144    0.0000 H   0  0  0  0  0  0  0  0  0  0  0  0
   -4.0001    1.8144    0.0000 H   0  0  0  0  0  0  0  0  0  0  0  0
   -4.7999   -2.7713    0.0000 O   0  0  0  0  0  0  0  0  0  0  0  0
   -6.4000   -2.7713    0.0000 C   0  0  0  0  0  0  0  0  0  0  0  0
   -8.0000   -2.7713    0.0000 C   0  0  0  0  0  0  0  0  0  0  0  0
   -9.6001   -2.7713    0.0000 C   0  0  0  0  0  0  0  0  0  0  0  0
  -11.1999   -2.7713    0.0000 C   0  0  0  0  0  0  0  0  0  0  0  0
  -12.8000   -2.7713    0.0000 H   0  0  0  0  0  0  0  0  0  0  0  0
  -12.0000   -4.1569    0.0000 H   0  0  0  0  0  0  0  0  0  0  0  0
  -12.0000   -1.3857    0.0000 H   0  0  0  0  0  0  0  0  0  0  0  0
   -9.6001   -4.3713    0.0000 H   0  0  0  0  0  0  0  0  0  0  0  0
   -9.6001   -1.1713    0.0000 H   0  0  0  0  0  0  0  0  0  0  0  0
   -8.0000   -4.3713    0.0000 H   0  0  0  0  0  0  0  0  0  0  0  0
   -8.0000   -1.1713    0.0000 H   0  0  0  0  0  0  0  0  0  0  0  0
   -6.4000   -4.3713    0.0000 H   0  0  0  0  0  0  0  0  0  0  0  0
   -6.4000   -1.1713    0.0000 H   0  0  0  0  0  0  0  0  0  0  0  0
   -3.2001    0.0000    0.0000 O   0  0  0  0  0  0  0  0  0  0  0  0
   -1.6000    0.0000    0.0000 C   0  0  0  0  0  0  0  0  0  0  0  0
    0.0000    0.0000    0.0000 C   0  0  0  0  0  0  0  0  0  0  0  0
    1.6001    0.0000    0.0000 C   0  0  0  0  0  0  0  0  0  0  0  0
    3.1999    0.0000    0.0000 C   0  0  0  0  0  0  0  0  0  0  0  0
    4.8000    0.0000    0.0000 H   0  0  0  0  0  0  0  0  0  0  0  0
    4.0000   -1.3857    0.0000 H   0  0  0  0  0  0  0  0  0  0  0  0
    4.0000    1.3856    0.0000 H   0  0  0  0  0  0  0  0  0  0  0  0
    1.6001   -1.6000    0.0000 H   0  0  0  0  0  0  0  0  0  0  0  0
    1.6001    1.6000    0.0000 H   0  0  0  0  0  0  0  0  0  0  0  0
    0.0000    1.6000    0.0000 H   0  0  0  0  0  0  0  0  0  0  0  0
    0.0000   -1.6000    0.0000 H   0  0  0  0  0  0  0  0  0  0  0  0
   -1.6000   -1.6000    0.0000 H   0  0  0  0  0  0  0  0  0  0  0  0
   -1.6000    1.6000    0.0000 H   0  0  0  0  0  0  0  0  0  0  0  0
  1  2  2  0  0  0  0
  1  3  1  0  0  0  0
  3  4  1  0  0  0  0
  4  5  1  0  0  0  0
  4  6  1  0  0  0  0
  4  7  1  0  0  0  0
  1  8  1  0  0  0  0
  8  9  1  0  0  0  0
  9 10  1  0  0  0  0
 10 11  1  0  0  0  0
 11 12  1  0  0  0  0
 12 13  1  0  0  0  0
 12 14  1  0  0  0  0
 12 15  1  0  0  0  0
 11 16  1  0  0  0  0
 11 17  1  0  0  0  0
 10 18  1  0  0  0  0
 10 19  1  0  0  0  0
  9 20  1  0  0  0  0
  9 21  1  0  0  0  0
  1 22  1  0  0  0  0
 22 23  1  0  0  0  0
 23 24  1  0  0  0  0
 24 25  1  0  0  0  0
 25 26  1  0  0  0  0
 26 27  1  0  0  0  0
 26 28  1  0  0  0  0
 26 29  1  0  0  0  0
 25 30  1  0  0  0  0
 25 31  1  0  0  0  0
 24 32  1  0  0  0  0
 24 33  1  0  0  0  0
 23 34  1  0  0  0  0
 23 35  1  0  0  0  0
M  END
> <CAS>
7242-59-3

> <NAME>
Phosphoric acid, dibutyl methyl ester

> <preferred_name>
Phosphoric acid, dibutyl methyl ester

> <iupac>
dibutyl methyl phosphate

> <SMILES>
COP(=O)(OCCCC)OCCCC

> <Canonical_QSARr>
COP(=O)(OCCCC)OCCCC

> <InChI_Code_QSARr>
InChI=1S/C9H21O4P/c1-4-6-8-12-14(10,11-3)13-9-7-5-2/h4-9H2,1-3H3

> <InChI Key_QSARr>
LPRHLAXCXZTKNI-UHFFFAOYSA-N

> <Salt_Solvent>
?

> <WS Temperature>
25

> <WS Reference>
BEILSTEIN

> <dsstox_substance_id>
DTXSID90222714

> <LogMolar>
-1.4995

$$$$
7287-19-6
  -INDIGO-01081615412D

 35 35  0  0  0  0  0  0  0  0999 V2000
   -0.8001    1.3857    0.0000 C   0  0  0  0  0  0  0  0  0  0  0  0
    0.0000   -0.0000    0.0000 C   0  0  0  0  0  0  0  0  0  0  0  0
    1.3855    0.8000    0.0000 N   0  0  0  0  0  0  0  0  0  0  0  0
    2.7713   -0.0000    0.0000 C   0  0  0  0  0  0  0  0  0  0  0  0
    2.7713   -1.6000    0.0000 N   0  0  0  1  0  0  0  0  0  0  0  0
    4.1570   -2.4000    0.0000 C   0  0  0  0  0  0  0  0  0  0  0  0
    4.1570   -3.9999    0.0000 S   0  0  0  0  0  0  0  0  0  0  0  0
    5.5426   -4.8000    0.0000 C   0  0  0  0  0  0  0  0  0  0  0  0
    5.5426   -6.4000    0.0000 H   0  0  0  0  0  0  0  0  0  0  0  0
    6.9283   -5.5999    0.0000 H   0  0  0  0  0  0  0  0  0  0  0  0
    4.1570   -5.5999    0.0000 H   0  0  0  0  0  0  0  0  0  0  0  0
    5.5426   -1.6000    0.0000 N   0  0  0  1  0  0  0  0  0  0  0  0
    5.5426   -0.0000    0.0000 C   0  0  0  0  0  0  0  0  0  0  0  0
    6.9283    0.8000    0.0000 N   0  0  0  0  0  0  0  0  0  0  0  0
    8.3138   -0.0000    0.0000 C   0  0  0  0  0  0  0  0  0  0  0  0
    9.6996   -0.8000    0.0000 C   0  0  0  0  0  0  0  0  0  0  0  0
   11.0851   -1.6000    0.0000 H   0  0  0  0  0  0  0  0  0  0  0  0
   11.0851   -0.0000    0.0000 H   0  0  0  0  0  0  0  0  0  0  0  0
    9.6996   -2.4000    0.0000 H   0  0  0  0  0  0  0  0  0  0  0  0
    9.1139    1.3857    0.0000 C   0  0  0  0  0  0  0  0  0  0  0  0
    9.9138    2.7713    0.0000 H   0  0  0  0  0  0  0  0  0  0  0  0
   10.7138    1.3857    0.0000 H   0  0  0  0  0  0  0  0  0  0  0  0
    8.3138    2.7713    0.0000 H   0  0  0  0  0  0  0  0  0  0  0  0
    7.5138   -1.3856    0.0000 H   0  0  0  0  0  0  0  0  0  0  0  0
    6.9283    2.4000    0.0000 H   0  0  0  0  0  0  0  0  0  0  0  0
    4.1570    0.8000    0.0000 N   0  0  0  1  0  0  0  0  0  0  0  0
    1.3855    2.4000    0.0000 H   0  0  0  0  0  0  0  0  0  0  0  0
   -1.3855   -0.8000    0.0000 C   0  0  0  0  0  0  0  0  0  0  0  0
   -2.7713   -1.6000    0.0000 H   0  0  0  0  0  0  0  0  0  0  0  0
   -2.7713   -0.0000    0.0000 H   0  0  0  0  0  0  0  0  0  0  0  0
   -1.3855   -2.4000    0.0000 H   0  0  0  0  0  0  0  0  0  0  0  0
    0.8001   -1.3856    0.0000 H   0  0  0  0  0  0  0  0  0  0  0  0
   -1.5999    2.7713    0.0000 H   0  0  0  0  0  0  0  0  0  0  0  0
   -2.4000    1.3857    0.0000 H   0  0  0  0  0  0  0  0  0  0  0  0
    0.0000    2.7713    0.0000 H   0  0  0  0  0  0  0  0  0  0  0  0
  1  2  1  0  0  0  0
  2  3  1  0  0  0  0
  3  4  1  0  0  0  0
  4  5  4  0  0  0  0
  5  6  4  0  0  0  0
  6  7  1  0  0  0  0
  7  8  1  0  0  0  0
  8  9  1  0  0  0  0
  8 10  1  0  0  0  0
  8 11  1  0  0  0  0
  6 12  4  0  0  0  0
 12 13  4  0  0  0  0
 13 14  1  0  0  0  0
 14 15  1  0  0  0  0
 15 16  1  0  0  0  0
 16 17  1  0  0  0  0
 16 18  1  0  0  0  0
 16 19  1  0  0  0  0
 15 20  1  0  0  0  0
 20 21  1  0  0  0  0
 20 22  1  0  0  0  0
 20 23  1  0  0  0  0
 15 24  1  0  0  0  0
 14 25  1  0  0  0  0
 13 26  4  0  0  0  0
 26  4  4  0  0  0  0
  3 27  1  0  0  0  0
  2 28  1  0  0  0  0
 28 29  1  0  0  0  0
 28 30  1  0  0  0  0
 28 31  1  0  0  0  0
  2 32  1  0  0  0  0
  1 33  1  0  0  0  0
  1 34  1  0  0  0  0
  1 35  1  0  0  0  0
M  END
> <CAS>
7287-19-6

> <NAME>
PROMETRYNE

> <preferred_name>
Prometryn

> <iupac>
6-(methylsulfanyl)-N,N'-di(propan-2-yl)-1,3,5-triazine-2,4-diamine

> <SMILES>
CSc1[n]c(NC(C)C)[n]c(NC(C)C)[n]1

> <Canonical_QSARr>
CSc1[n]c(NC(C)C)[n]c(NC(C)C)[n]1

> <InChI_Code_QSARr>
InChI=1S/C10H19N5S/c1-6(2)11-8-13-9(12-7(3)4)15-10(14-8)16-5/h6-7H,1-5H3,(H2,11,12,13,14,15)

> <InChI Key_QSARr>
AAEVYOVXGOFMJO-UHFFFAOYSA-N

> <Salt_Solvent>
?

> <WS Temperature>
25

> <WS Reference>
WAUCHOPE,RD ET AL. (1991A)

> <dsstox_substance_id>
DTXSID4024272

> <LogMolar>
-3.8642

$$$$
7334-51-2
  -INDIGO-01081615412D

 28 27  0  0  0  0  0  0  0  0999 V2000
   -1.3856   -2.4000    0.0000 O   0  0  0  0  0  0  0  0  0  0  0  0
   -1.3856   -0.8000    0.0000 C   0  0  0  0  0  0  0  0  0  0  0  0
    0.0001   -0.0000    0.0000 C   0  0  0  0  0  0  0  0  0  0  0  0
    1.3856    0.8000    0.0000 C   0  0  0  0  0  0  0  0  0  0  0  0
    2.7713    1.6000    0.0000 C   0  0  0  0  0  0  0  0  0  0  0  0
    4.1570    0.8000    0.0000 N   0  0  0  0  0  0  0  0  0  0  0  0
    5.5425    1.6000    0.0000 C   0  0  0  0  0  0  0  0  0  0  0  0
    6.9282    2.4000    0.0000 H   0  0  0  0  0  0  0  0  0  0  0  0
    6.9282    0.8000    0.0000 H   0  0  0  0  0  0  0  0  0  0  0  0
    5.5425    3.2000    0.0000 H   0  0  0  0  0  0  0  0  0  0  0  0
    4.1570   -0.8000    0.0000 C   0  0  0  0  0  0  0  0  0  0  0  0
    4.1570   -2.4000    0.0000 H   0  0  0  0  0  0  0  0  0  0  0  0
    5.5425   -1.6000    0.0000 H   0  0  0  0  0  0  0  0  0  0  0  0
    2.7713   -1.6000    0.0000 H   0  0  0  0  0  0  0  0  0  0  0  0
    2.7713    3.2000    0.0000 O   0  0  0  0  0  0  0  0  0  0  0  0
    2.1856   -0.5856    0.0000 H   0  0  0  0  0  0  0  0  0  0  0  0
    0.5856    2.1856    0.0000 H   0  0  0  0  0  0  0  0  0  0  0  0
    0.8000   -1.3856    0.0000 H   0  0  0  0  0  0  0  0  0  0  0  0
   -0.7999    1.3856    0.0000 H   0  0  0  0  0  0  0  0  0  0  0  0
   -2.7713   -0.0000    0.0000 N   0  0  0  0  0  0  0  0  0  0  0  0
   -4.1569   -0.8000    0.0000 C   0  0  0  0  0  0  0  0  0  0  0  0
   -5.5426   -1.6000    0.0000 H   0  0  0  0  0  0  0  0  0  0  0  0
   -5.5426   -0.0000    0.0000 H   0  0  0  0  0  0  0  0  0  0  0  0
   -4.1569   -2.4000    0.0000 H   0  0  0  0  0  0  0  0  0  0  0  0
   -2.7713    1.6000    0.0000 C   0  0  0  0  0  0  0  0  0  0  0  0
   -2.7713    3.2000    0.0000 H   0  0  0  0  0  0  0  0  0  0  0  0
   -4.1569    2.4000    0.0000 H   0  0  0  0  0  0  0  0  0  0  0  0
   -4.1569    0.8000    0.0000 H   0  0  0  0  0  0  0  0  0  0  0  0
  1  2  2  0  0  0  0
  2  3  1  0  0  0  0
  3  4  1  0  0  0  0
  4  5  1  0  0  0  0
  5  6  1  0  0  0  0
  6  7  1  0  0  0  0
  7  8  1  0  0  0  0
  7  9  1  0  0  0  0
  7 10  1  0  0  0  0
  6 11  1  0  0  0  0
 11 12  1  0  0  0  0
 11 13  1  0  0  0  0
 11 14  1  0  0  0  0
  5 15  2  0  0  0  0
  4 16  1  0  0  0  0
  4 17  1  0  0  0  0
  3 18  1  0  0  0  0
  3 19  1  0  0  0  0
  2 20  1  0  0  0  0
 20 21  1  0  0  0  0
 21 22  1  0  0  0  0
 21 23  1  0  0  0  0
 21 24  1  0  0  0  0
 20 25  1  0  0  0  0
 25 26  1  0  0  0  0
 25 27  1  0  0  0  0
 25 28  1  0  0  0  0
M  END
> <CAS>
7334-51-2

> <NAME>
Butanediamide, N,N,N',N'-tetramethyl-

> <preferred_name>
N,N,N',N'-Tetramethylsuccinamide

> <iupac>
N,N,N',N'-tetramethylbutanediamide

> <SMILES>
CN(C)C(=O)CCC(=O)N(C)C

> <Canonical_QSARr>
CN(C)C(=O)CCC(=O)N(C)C

> <InChI_Code_QSARr>
InChI=1S/C8H16N2O2/c1-9(2)7(11)5-6-8(12)10(3)4/h5-6H2,1-4H3

> <InChI Key_QSARr>
RCWUFNWXCIKHPC-UHFFFAOYSA-N

> <Salt_Solvent>
?

> <WS Temperature>
30

> <WS Reference>
BEILSTEIN

> <dsstox_substance_id>
DTXSID00223570

> <LogMolar>
0.5035

$$$$
7383-56-4
  -INDIGO-01081615412D

 22 22  0  0  0  0  0  0  0  0999 V2000
    0.0001    2.7713    0.0000 O   0  0  0  0  0  0  0  0  0  0  0  0
   -0.7999    1.3857    0.0000 C   0  0  0  0  0  0  0  0  0  0  0  0
   -2.4001    1.3857    0.0000 C   0  0  0  0  0  0  0  0  0  0  0  0
   -2.1222    2.9613    0.0000 H   0  0  0  0  0  0  0  0  0  0  0  0
   -3.9035    1.9329    0.0000 H   0  0  0  0  0  0  0  0  0  0  0  0
   -3.2001   -0.0000    0.0000 N   0  0  0  0  0  0  0  0  0  0  0  0
   -4.8000    0.0000    0.0000 C   0  0  0  0  0  0  0  0  0  0  0  0
   -6.4000    0.0000    0.0000 O   0  0  0  0  0  0  0  0  0  0  0  0
   -7.2000   -1.3857    0.0000 H   0  0  0  0  0  0  0  0  0  0  0  0
   -4.8000   -1.6000    0.0000 H   0  0  0  0  0  0  0  0  0  0  0  0
   -5.3473    1.5035    0.0000 H   0  0  0  0  0  0  0  0  0  0  0  0
   -2.4001   -1.3857    0.0000 C   0  0  0  0  0  0  0  0  0  0  0  0
   -3.2001   -2.7713    0.0000 O   0  0  0  0  0  0  0  0  0  0  0  0
   -0.7999   -1.3857    0.0000 C   0  0  0  0  0  0  0  0  0  0  0  0
   -1.0778   -2.9613    0.0000 H   0  0  0  0  0  0  0  0  0  0  0  0
    0.7035   -1.9329    0.0000 H   0  0  0  0  0  0  0  0  0  0  0  0
    0.0001    0.0000    0.0000 N   0  0  0  0  0  0  0  0  0  0  0  0
    1.6000    0.0000    0.0000 C   0  0  0  0  0  0  0  0  0  0  0  0
    3.2000    0.0000    0.0000 O   0  0  0  0  0  0  0  0  0  0  0  0
    4.0000    1.3857    0.0000 H   0  0  0  0  0  0  0  0  0  0  0  0
    1.6000    1.6000    0.0000 H   0  0  0  0  0  0  0  0  0  0  0  0
    1.8779   -1.5757    0.0000 H   0  0  0  0  0  0  0  0  0  0  0  0
  1  2  2  0  0  0  0
  2  3  1  0  0  0  0
  3  4  1  0  0  0  0
  3  5  1  0  0  0  0
  3  6  1  0  0  0  0
  6  7  1  0  0  0  0
  7  8  1  0  0  0  0
  8  9  1  0  0  0  0
  7 10  1  0  0  0  0
  7 11  1  0  0  0  0
  6 12  1  0  0  0  0
 12 13  2  0  0  0  0
 12 14  1  0  0  0  0
 14 15  1  0  0  0  0
 14 16  1  0  0  0  0
 14 17  1  0  0  0  0
 17  2  1  0  0  0  0
 17 18  1  0  0  0  0
 18 19  1  0  0  0  0
 19 20  1  0  0  0  0
 18 21  1  0  0  0  0
 18 22  1  0  0  0  0
M  END
> <CAS>
7383-56-4

> <NAME>
2,5-Piperazinedione, 1,4-bis(hydroxymethyl)-

> <preferred_name>
2,5-Piperazinedione, 1,4-bis(hydroxymethyl)-

> <iupac>
1,4-bis(hydroxymethyl)piperazine-2,5-dione

> <SMILES>
OCN1CC(=O)N(CC1=O)CO

> <Canonical_QSARr>
OCN1CC(=O)N(CC1=O)CO

> <InChI_Code_QSARr>
InChI=1S/C6H10N2O4/c9-3-7-1-5(11)8(4-10)2-6(7)12/h9-10H,1-4H2

> <InChI Key_QSARr>
YJJCHWPBSSONRM-UHFFFAOYSA-N

> <Salt_Solvent>
?

> <WS Temperature>


> <WS Reference>
BEILSTEIN

> <dsstox_substance_id>
DTXSID40224329

> <LogMolar>
-0.4168

$$$$
7417-67-6
  -INDIGO-01081615412D

 13 12  0  0  0  0  0  0  0  0999 V2000
    1.3856    2.4000    0.0000 O   0  0  0  0  0  0  0  0  0  0  0  0
    1.3856    0.8000    0.0000 C   0  0  0  0  0  0  0  0  0  0  0  0
    2.7713   -0.0000    0.0000 C   0  0  0  0  0  0  0  0  0  0  0  0
    4.1569   -0.8000    0.0000 H   0  0  0  0  0  0  0  0  0  0  0  0
    4.1569    0.8000    0.0000 H   0  0  0  0  0  0  0  0  0  0  0  0
    2.7713   -1.6000    0.0000 H   0  0  0  0  0  0  0  0  0  0  0  0
    0.0000    0.0000    0.0000 N   0  0  0  0  0  0  0  0  0  0  0  0
   -1.3856    0.8000    0.0000 C   0  0  0  0  0  0  0  0  0  0  0  0
   -2.7713    1.6000    0.0000 H   0  0  0  0  0  0  0  0  0  0  0  0
   -2.7713    0.0000    0.0000 H   0  0  0  0  0  0  0  0  0  0  0  0
   -1.3856    2.4000    0.0000 H   0  0  0  0  0  0  0  0  0  0  0  0
    0.0000   -1.6000    0.0000 N   0  0  0  0  0  0  0  0  0  0  0  0
   -1.3856   -2.4000    0.0000 O   0  0  0  0  0  0  0  0  0  0  0  0
  1  2  2  0  0  0  0
  2  3  1  0  0  0  0
  3  4  1  0  0  0  0
  3  5  1  0  0  0  0
  3  6  1  0  0  0  0
  2  7  1  0  0  0  0
  7  8  1  0  0  0  0
  8  9  1  0  0  0  0
  8 10  1  0  0  0  0
  8 11  1  0  0  0  0
  7 12  1  0  0  0  0
 12 13  2  0  0  0  0
M  END
> <CAS>
7417-67-6

> <NAME>
N-Methyl-N-nitrosoacetamide

> <preferred_name>
N-Methyl-N-nitrosoacetamide

> <iupac>
N-Methyl-N-nitrosoacetamide

> <SMILES>
CC(=O)N(C)N=O

> <Canonical_QSARr>
CC(=O)N(C)N=O

> <InChI_Code_QSARr>
InChI=1S/C3H6N2O2/c1-3(6)5(2)4-7/h1-2H3

> <InChI Key_QSARr>
FFLFWNRFMZRFKU-UHFFFAOYSA-N

> <Salt_Solvent>
?

> <WS Temperature>
25

> <WS Reference>
MIRVISH, SS ET AL. (1976)

> <dsstox_substance_id>
DTXSID50225140

> <LogMolar>
-0.7684

$$$$
7471-03-6
  -INDIGO-01081615412D

 17 18  0  0  0  0  0  0  0  0999 V2000
    2.3651    1.0530    0.0000 S   0  0  0  1  0  0  0  0  0  0  0  0
    2.5323   -0.5382    0.0000 C   0  0  0  0  0  0  0  0  0  0  0  0
    3.9179   -1.3383    0.0000 N   0  0  0  0  0  0  0  0  0  0  0  0
    5.3036   -0.5382    0.0000 H   0  0  0  0  0  0  0  0  0  0  0  0
    3.9179   -2.9383    0.0000 H   0  0  0  0  0  0  0  0  0  0  0  0
    1.0706   -1.1890    0.0000 N   0  0  0  1  0  0  0  0  0  0  0  0
   -0.0000   -0.0000    0.0000 C   0  0  0  0  0  0  0  0  0  0  0  0
   -1.6000   -0.0000    0.0000 C   0  0  0  0  0  0  0  0  0  0  0  0
   -2.3999    1.3857    0.0000 C   0  0  0  0  0  0  0  0  0  0  0  0
   -1.6000    2.7712    0.0000 C   0  0  0  0  0  0  0  0  0  0  0  0
   -0.0000    2.7712    0.0000 C   0  0  0  0  0  0  0  0  0  0  0  0
    0.8001    4.1569    0.0000 H   0  0  0  0  0  0  0  0  0  0  0  0
    0.8001    1.3857    0.0000 C   0  0  0  0  0  0  0  0  0  0  0  0
   -2.3999    4.1569    0.0000 H   0  0  0  0  0  0  0  0  0  0  0  0
   -4.0000    1.3857    0.0000 H   0  0  0  0  0  0  0  0  0  0  0  0
   -2.3999   -1.3856    0.0000 O   0  0  0  0  0  0  0  0  0  0  0  0
   -4.0000   -1.3856    0.0000 H   0  0  0  0  0  0  0  0  0  0  0  0
  1  2  4  0  0  0  0
  2  3  1  0  0  0  0
  3  4  1  0  0  0  0
  3  5  1  0  0  0  0
  2  6  4  0  0  0  0
  6  7  4  0  0  0  0
  7  8  4  0  0  0  0
  8  9  4  0  0  0  0
  9 10  4  0  0  0  0
 10 11  4  0  0  0  0
 11 12  1  0  0  0  0
 11 13  4  0  0  0  0
 13  1  4  0  0  0  0
 13  7  4  0  0  0  0
 10 14  1  0  0  0  0
  9 15  1  0  0  0  0
  8 16  1  0  0  0  0
 16 17  1  0  0  0  0
M  END
> <CAS>
7471-03-6

> <NAME>
4-Benzothiazolol, 2-amino-

> <preferred_name>
2-Amino-4-hydroxybenzothiazole

> <iupac>
2-amino-1,3-benzothiazol-4-ol

> <SMILES>
Nc1[n]c2c(O)cccc2[s]1

> <Canonical_QSARr>
Nc1[n]c2c(O)cccc2[s]1

> <InChI_Code_QSARr>
InChI=1S/C7H6N2OS/c8-7-9-6-4(10)2-1-3-5(6)11-7/h1-3,10H,(H2,8,9)

> <InChI Key_QSARr>
PFQJPSASUCHKRO-UHFFFAOYSA-N

> <Salt_Solvent>
?

> <WS Temperature>
20

> <WS Reference>
BEILSTEIN

> <dsstox_substance_id>
DTXSID20225692

> <LogMolar>
-1.9196

$$$$
7504-90-7
  -INDIGO-01081615412D

 28 28  0  0  0  0  0  0  0  0999 V2000
   -0.8000    1.3857    0.0000 O   0  0  0  0  0  0  0  0  0  0  0  0
   -2.4000    1.3857    0.0000 C   0  0  0  0  0  0  0  0  0  0  0  0
   -2.1222    2.9613    0.0000 H   0  0  0  0  0  0  0  0  0  0  0  0
   -3.9034    1.9329    0.0000 H   0  0  0  0  0  0  0  0  0  0  0  0
   -3.2000   -0.0000    0.0000 C   0  0  0  0  0  0  0  0  0  0  0  0
   -4.4257   -1.0285    0.0000 C   0  0  0  0  0  0  0  0  0  0  0  0
   -5.6514   -2.0570    0.0000 H   0  0  0  0  0  0  0  0  0  0  0  0
   -5.9291   -0.4812    0.0000 H   0  0  0  0  0  0  0  0  0  0  0  0
   -4.1478   -2.6042    0.0000 H   0  0  0  0  0  0  0  0  0  0  0  0
   -4.4257    1.0285    0.0000 O   0  0  0  0  0  0  0  0  0  0  0  0
   -5.9291    0.4812    0.0000 C   0  0  0  0  0  0  0  0  0  0  0  0
   -7.1548    1.5097    0.0000 H   0  0  0  0  0  0  0  0  0  0  0  0
   -7.4327   -0.0660    0.0000 H   0  0  0  0  0  0  0  0  0  0  0  0
   -5.6514    2.0570    0.0000 H   0  0  0  0  0  0  0  0  0  0  0  0
   -2.4000   -1.3857    0.0000 O   0  0  0  0  0  0  0  0  0  0  0  0
   -0.8000   -1.3857    0.0000 C   0  0  0  0  0  0  0  0  0  0  0  0
   -1.0778   -2.9613    0.0000 H   0  0  0  0  0  0  0  0  0  0  0  0
    0.7034   -1.9329    0.0000 H   0  0  0  0  0  0  0  0  0  0  0  0
   -0.0000    0.0000    0.0000 C   0  0  0  0  0  0  0  0  0  0  0  0
    1.2257    1.0285    0.0000 C   0  0  0  0  0  0  0  0  0  0  0  0
    2.4514    2.0570    0.0000 H   0  0  0  0  0  0  0  0  0  0  0  0
    2.7291    0.4812    0.0000 H   0  0  0  0  0  0  0  0  0  0  0  0
    0.9478    2.6042    0.0000 H   0  0  0  0  0  0  0  0  0  0  0  0
    1.2257   -1.0285    0.0000 O   0  0  0  0  0  0  0  0  0  0  0  0
    2.7291   -0.4812    0.0000 C   0  0  0  0  0  0  0  0  0  0  0  0
    3.9548   -1.5097    0.0000 H   0  0  0  0  0  0  0  0  0  0  0  0
    4.2327    0.0660    0.0000 H   0  0  0  0  0  0  0  0  0  0  0  0
    2.4514   -2.0570    0.0000 H   0  0  0  0  0  0  0  0  0  0  0  0
  1  2  1  0  0  0  0
  2  3  1  0  0  0  0
  2  4  1  0  0  0  0
  2  5  1  0  0  0  0
  5  6  1  0  0  0  0
  6  7  1  0  0  0  0
  6  8  1  0  0  0  0
  6  9  1  0  0  0  0
  5 10  1  0  0  0  0
 10 11  1  0  0  0  0
 11 12  1  0  0  0  0
 11 13  1  0  0  0  0
 11 14  1  0  0  0  0
  5 15  1  0  0  0  0
 15 16  1  0  0  0  0
 16 17  1  0  0  0  0
 16 18  1  0  0  0  0
 16 19  1  0  0  0  0
 19  1  1  0  0  0  0
 19 20  1  0  0  0  0
 20 21  1  0  0  0  0
 20 22  1  0  0  0  0
 20 23  1  0  0  0  0
 19 24  1  0  0  0  0
 24 25  1  0  0  0  0
 25 26  1  0  0  0  0
 25 27  1  0  0  0  0
 25 28  1  0  0  0  0
M  END
> <CAS>
7504-90-7

> <NAME>
1,4-DIOXANE, 2,5-DIMETHOXY-2,5-DIMETHYL-

> <preferred_name>
2,5-dimethoxy-2,5-dimethyl-1,4-dioxane

> <iupac>
C8H16O4

> <SMILES>
CC1(COC(C)(CO1)OC)OC

> <Canonical_QSARr>
CC1(COC(C)(CO1)OC)OC

> <InChI_Code_QSARr>
InChI=1S/C8H16O4/c1-7(9-3)5-12-8(2,10-4)6-11-7/h5-6H2,1-4H3

> <InChI Key_QSARr>
UUGSNNUEVKTATH-UHFFFAOYSA-N

> <Salt_Solvent>
?

> <WS Temperature>


> <WS Reference>
BEILSTEIN

> <dsstox_substance_id>
DTXSID80323769

> <LogMolar>
-1.246

$$$$
7557-02-0
  -INDIGO-01081615412D

 17 18  0  0  0  0  0  0  0  0999 V2000
   -3.2000    2.7713    0.0000 O   0  0  0  0  0  0  0  0  0  0  0  0
   -2.4000    1.3856    0.0000 C   0  0  0  0  0  0  0  0  0  0  0  0
   -3.2000   -0.0000    0.0000 C   0  0  0  0  0  0  0  0  0  0  0  0
   -4.8000   -0.0000    0.0000 H   0  0  0  0  0  0  0  0  0  0  0  0
   -2.4000   -1.3856    0.0000 C   0  0  0  0  0  0  0  0  0  0  0  0
   -3.2000   -2.7713    0.0000 H   0  0  0  0  0  0  0  0  0  0  0  0
   -0.8000   -1.3856    0.0000 C   0  0  0  0  0  0  0  0  0  0  0  0
    0.0000   -2.7713    0.0000 H   0  0  0  0  0  0  0  0  0  0  0  0
    0.0000   -0.0000    0.0000 C   0  0  0  0  0  0  0  0  0  0  0  0
    1.6000   -0.0000    0.0000 C   0  0  0  0  0  0  0  0  0  0  0  0
    2.4000    1.3856    0.0000 N   0  0  0  1  0  0  0  0  0  0  0  0
    1.6000    2.7713    0.0000 C   0  0  0  0  0  0  0  0  0  0  0  0
    0.0000    2.7713    0.0000 N   0  0  0  1  0  0  0  0  0  0  0  0
   -0.8000    1.3856    0.0000 C   0  0  0  0  0  0  0  0  0  0  0  0
    2.4000    4.1569    0.0000 H   0  0  0  0  0  0  0  0  0  0  0  0
    2.4000   -1.3856    0.0000 H   0  0  0  0  0  0  0  0  0  0  0  0
   -4.8000    2.7713    0.0000 H   0  0  0  0  0  0  0  0  0  0  0  0
  1  2  1  0  0  0  0
  2  3  4  0  0  0  0
  3  4  1  0  0  0  0
  3  5  4  0  0  0  0
  5  6  1  0  0  0  0
  5  7  4  0  0  0  0
  7  8  1  0  0  0  0
  7  9  4  0  0  0  0
  9 10  4  0  0  0  0
 10 11  4  0  0  0  0
 11 12  4  0  0  0  0
 12 13  4  0  0  0  0
 13 14  4  0  0  0  0
 14  2  4  0  0  0  0
 14  9  4  0  0  0  0
 12 15  1  0  0  0  0
 10 16  1  0  0  0  0
  1 17  1  0  0  0  0
M  END
> <CAS>
7557-02-0

> <NAME>
8-Quinazolinol

> <preferred_name>
8-Quinazolinol

> <iupac>
C8H6N2O

> <SMILES>
Oc1cccc2c[n]c[n]c21

> <Canonical_QSARr>
Oc1cccc2c[n]c[n]c21

> <InChI_Code_QSARr>
InChI=1S/C8H6N2O/c11-7-3-1-2-6-4-9-5-10-8(6)7/h1-5,11H

> <InChI Key_QSARr>
LNNRQIKKDKDFRV-UHFFFAOYSA-N

> <Salt_Solvent>
?

> <WS Temperature>
20

> <WS Reference>
BEILSTEIN

> <dsstox_substance_id>
DTXSID00343429

> <LogMolar>
-2.0361

$$$$
7630-14-0
  -INDIGO-01081615412D

 24 25  0  0  0  0  0  0  0  0999 V2000
    4.9404   -0.0912    0.0000 O   0  0  0  0  0  0  0  0  0  0  0  0
    6.4621   -0.5856    0.0000 C   0  0  0  0  0  0  0  0  0  0  0  0
    7.7566    0.3548    0.0000 H   0  0  0  0  0  0  0  0  0  0  0  0
    6.4621   -2.1857    0.0000 C   0  0  0  0  0  0  0  0  0  0  0  0
    7.7566   -3.1261    0.0000 H   0  0  0  0  0  0  0  0  0  0  0  0
    4.9404   -2.6801    0.0000 C   0  0  0  0  0  0  0  0  0  0  0  0
    4.4461   -4.2018    0.0000 H   0  0  0  0  0  0  0  0  0  0  0  0
    4.0000   -1.3856    0.0000 C   0  0  0  0  0  0  0  0  0  0  0  0
    2.4000   -1.3856    0.0000 C   0  0  0  0  0  0  0  0  0  0  0  0
    1.6000    0.0000    0.0000 N   0  0  0  0  0  0  0  0  0  0  0  0
   -0.0000    0.0000    0.0000 C   0  0  0  0  0  0  0  0  0  0  0  0
   -0.7999    1.3856    0.0000 C   0  0  0  0  0  0  0  0  0  0  0  0
   -0.0000    2.7713    0.0000 H   0  0  0  0  0  0  0  0  0  0  0  0
   -2.4000    1.3856    0.0000 C   0  0  0  0  0  0  0  0  0  0  0  0
   -3.1999    2.7713    0.0000 H   0  0  0  0  0  0  0  0  0  0  0  0
   -3.1999    0.0000    0.0000 C   0  0  0  0  0  0  0  0  0  0  0  0
   -4.8000    0.0000    0.0000 H   0  0  0  0  0  0  0  0  0  0  0  0
   -2.4000   -1.3856    0.0000 C   0  0  0  0  0  0  0  0  0  0  0  0
   -3.1999   -2.7713    0.0000 H   0  0  0  0  0  0  0  0  0  0  0  0
   -0.7999   -1.3856    0.0000 C   0  0  0  0  0  0  0  0  0  0  0  0
   -0.0000   -2.7713    0.0000 H   0  0  0  0  0  0  0  0  0  0  0  0
    2.4000    1.3856    0.0000 O   0  0  0  0  0  0  0  0  0  0  0  0
    4.0000    1.3856    0.0000 H   0  0  0  0  0  0  0  0  0  0  0  0
    1.6000   -2.7713    0.0000 O   0  0  0  0  0  0  0  0  0  0  0  0
  1  2  4  0  0  0  0
  2  3  1  0  0  0  0
  2  4  4  0  0  0  0
  4  5  1  0  0  0  0
  4  6  4  0  0  0  0
  6  7  1  0  0  0  0
  6  8  4  0  0  0  0
  8  1  4  0  0  0  0
  8  9  1  0  0  0  0
  9 10  1  0  0  0  0
 10 11  1  0  0  0  0
 11 12  4  0  0  0  0
 12 13  1  0  0  0  0
 12 14  4  0  0  0  0
 14 15  1  0  0  0  0
 14 16  4  0  0  0  0
 16 17  1  0  0  0  0
 16 18  4  0  0  0  0
 18 19  1  0  0  0  0
 18 20  4  0  0  0  0
 20 11  4  0  0  0  0
 20 21  1  0  0  0  0
 10 22  1  0  0  0  0
 22 23  1  0  0  0  0
  9 24  2  0  0  0  0
M  END
> <CAS>
7630-14-0

> <NAME>
2-Furancarboxamide, N-hydroxy-N-phenyl-

> <preferred_name>
N-hydroxy-N-phenylfuran-2-carboxamide

> <iupac>
C11H9NO3

> <SMILES>
ON(C(=O)c1ccco1)c1ccccc1

> <Canonical_QSARr>
ON(C(=O)c1ccco1)c1ccccc1

> <InChI_Code_QSARr>
InChI=1S/C11H9NO3/c13-11(10-7-4-8-15-10)12(14)9-5-2-1-3-6-9/h1-8,14H

> <InChI Key_QSARr>
CCTHSALYFOIKCZ-UHFFFAOYSA-N

> <Salt_Solvent>
?

> <WS Temperature>


> <WS Reference>
BEILSTEIN

> <dsstox_substance_id>
DTXSID60340494

> <LogMolar>
-3.194

$$$$
7681-93-8
  -INDIGO-01081615412D

 94 97  0  0  0  0  0  0  0  0999 V2000
    8.6459   -0.1966    0.0000 C   0  0  0  0  0  0  0  0  0  0  0  0
    7.3614   -1.1506    0.0000 C   0  0  0  0  0  0  0  0  0  0  0  0
    7.1234   -2.7327    0.0000 O   0  0  0  0  0  0  0  0  0  0  0  0
    5.8722   -1.7356    0.0000 C   0  0  0  0  0  0  0  0  0  0  0  0
    6.2552   -3.2888    0.0000 H   0  0  0  0  0  0  0  0  0  0  0  0
    4.2816   -1.9105    0.0000 C   0  0  0  0  0  0  0  0  0  0  0  0
    4.1749   -3.5069    0.0000 H   0  0  0  0  0  0  0  0  0  0  0  0
    5.1112   -3.2787    0.0000 H   0  0  0  0  0  0  0  0  0  0  0  0
    2.7008   -1.6635    0.0000 C   0  0  0  0  0  0  0  0  0  0  0  0
    3.1435   -3.2010    0.0000 O   0  0  0  0  0  0  0  0  0  0  0  0
    2.0335   -4.3531    0.0000 H   0  0  0  0  0  0  0  0  0  0  0  0
    2.1802   -3.1763    0.0000 H   0  0  0  0  0  0  0  0  0  0  0  0
    1.2398   -1.0115    0.0000 C   0  0  0  0  0  0  0  0  0  0  0  0
    0.6275   -1.9137    0.0000 H   0  0  0  0  0  0  0  0  0  0  0  0
    1.2650   -2.6114    0.0000 H   0  0  0  0  0  0  0  0  0  0  0  0
   -0.0002    0.0000    0.0000 C   0  0  0  0  0  0  0  0  0  0  0  0
   -0.1613   -0.6192    0.0000 O   0  0  0  0  0  0  0  0  0  0  0  0
   -0.2003   -1.7089    0.0000 H   0  0  0  0  0  0  0  0  0  0  0  0
   -1.3858   -0.8000    0.0000 C   0  0  0  0  0  0  0  0  0  0  0  0
   -2.7714    0.0000    0.0000 C   0  0  0  0  0  0  0  0  0  0  0  0
   -3.3187   -1.5034    0.0000 O   0  0  0  0  0  0  0  0  0  0  0  0
   -4.8942   -1.7814    0.0000 H   0  0  0  0  0  0  0  0  0  0  0  0
   -2.7714    1.5999    0.0000 C   0  0  0  0  0  0  0  0  0  0  0  0
   -4.3469    1.3221    0.0000 C   0  0  0  0  0  0  0  0  0  0  0  0
   -5.3755    2.5478    0.0000 O   0  0  0  0  0  0  0  0  0  0  0  0
   -5.3755    0.0965    0.0000 O   0  0  0  0  0  0  0  0  0  0  0  0
   -6.9510    0.3743    0.0000 H   0  0  0  0  0  0  0  0  0  0  0  0
   -3.5714    2.9857    0.0000 H   0  0  0  0  0  0  0  0  0  0  0  0
   -1.3858    2.4000    0.0000 C   0  0  0  0  0  0  0  0  0  0  0  0
   -0.0002    1.5999    0.0000 O   0  0  0  0  0  0  0  0  0  0  0  0
   -2.3322    2.6240    0.0000 H   0  0  0  0  0  0  0  0  0  0  0  0
   -1.6417    3.9794    0.0000 C   0  0  0  0  0  0  0  0  0  0  0  0
   -3.0147    4.8009    0.0000 H   0  0  0  0  0  0  0  0  0  0  0  0
   -2.5091    3.5393    0.0000 H   0  0  0  0  0  0  0  0  0  0  0  0
   -1.4756    5.5706    0.0000 C   0  0  0  0  0  0  0  0  0  0  0  0
   -2.5860    6.7230    0.0000 O   0  0  0  0  0  0  0  0  0  0  0  0
   -4.1387    6.3374    0.0000 C   0  0  0  0  0  0  0  0  0  0  0  0
   -4.2486    7.9338    0.0000 C   0  0  0  0  0  0  0  0  0  0  0  0
   -3.8059    9.4713    0.0000 O   0  0  0  0  0  0  0  0  0  0  0  0
   -2.2532    9.8567    0.0000 H   0  0  0  0  0  0  0  0  0  0  0  0
   -2.6576    7.7648    0.0000 H   0  0  0  0  0  0  0  0  0  0  0  0
   -5.6862    8.6367    0.0000 C   0  0  0  0  0  0  0  0  0  0  0  0
   -6.3353   10.0989    0.0000 N   0  0  0  0  0  0  0  0  0  0  0  0
   -5.3934   11.3924    0.0000 H   0  0  0  0  0  0  0  0  0  0  0  0
   -7.9262   10.2679    0.0000 H   0  0  0  0  0  0  0  0  0  0  0  0
   -4.7443    9.9302    0.0000 H   0  0  0  0  0  0  0  0  0  0  0  0
   -7.0135    7.7434    0.0000 C   0  0  0  0  0  0  0  0  0  0  0  0
   -8.5662    7.3580    0.0000 O   0  0  0  0  0  0  0  0  0  0  0  0
   -9.6766    8.5101    0.0000 H   0  0  0  0  0  0  0  0  0  0  0  0
   -7.6626    9.2058    0.0000 H   0  0  0  0  0  0  0  0  0  0  0  0
   -6.9036    6.1472    0.0000 C   0  0  0  0  0  0  0  0  0  0  0  0
   -7.3463    4.6097    0.0000 C   0  0  0  0  0  0  0  0  0  0  0  0
   -8.8990    4.2241    0.0000 H   0  0  0  0  0  0  0  0  0  0  0  0
   -7.7890    3.0720    0.0000 H   0  0  0  0  0  0  0  0  0  0  0  0
   -6.2359    3.4576    0.0000 H   0  0  0  0  0  0  0  0  0  0  0  0
   -8.4946    6.3162    0.0000 H   0  0  0  0  0  0  0  0  0  0  0  0
   -5.4664    5.4443    0.0000 O   0  0  0  0  0  0  0  0  0  0  0  0
   -4.0288    4.7412    0.0000 H   0  0  0  0  0  0  0  0  0  0  0  0
   -3.0462    5.8763    0.0000 H   0  0  0  0  0  0  0  0  0  0  0  0
   -0.8992    7.0632    0.0000 C   0  0  0  0  0  0  0  0  0  0  0  0
   -1.7305    8.4304    0.0000 H   0  0  0  0  0  0  0  0  0  0  0  0
    0.0476    8.3532    0.0000 C   0  0  0  0  0  0  0  0  0  0  0  0
   -1.1063    9.4617    0.0000 H   0  0  0  0  0  0  0  0  0  0  0  0
    1.2987    9.3504    0.0000 C   0  0  0  0  0  0  0  0  0  0  0  0
    0.4752   10.7223    0.0000 H   0  0  0  0  0  0  0  0  0  0  0  0
    2.7672    9.9857    0.0000 C   0  0  0  0  0  0  0  0  0  0  0  0
    2.3312   11.5251    0.0000 H   0  0  0  0  0  0  0  0  0  0  0  0
    4.3504   10.2149    0.0000 C   0  0  0  0  0  0  0  0  0  0  0  0
    4.3325   11.8148    0.0000 H   0  0  0  0  0  0  0  0  0  0  0  0
    5.9389   10.0217    0.0000 C   0  0  0  0  0  0  0  0  0  0  0  0
    6.3398   11.5708    0.0000 H   0  0  0  0  0  0  0  0  0  0  0  0
    7.4214    9.4200    0.0000 C   0  0  0  0  0  0  0  0  0  0  0  0
    8.2134   10.8102    0.0000 H   0  0  0  0  0  0  0  0  0  0  0  0
    8.6951    8.4514    0.0000 C   0  0  0  0  0  0  0  0  0  0  0  0
    9.8230    9.5860    0.0000 H   0  0  0  0  0  0  0  0  0  0  0  0
    9.6706    7.1834    0.0000 C   0  0  0  0  0  0  0  0  0  0  0  0
   11.1970    7.6639    0.0000 H   0  0  0  0  0  0  0  0  0  0  0  0
   10.4089    8.6029    0.0000 H   0  0  0  0  0  0  0  0  0  0  0  0
   10.2811    5.7044    0.0000 C   0  0  0  0  0  0  0  0  0  0  0  0
   11.8054    5.2181    0.0000 C   0  0  0  0  0  0  0  0  0  0  0  0
   13.3296    4.7318    0.0000 H   0  0  0  0  0  0  0  0  0  0  0  0
   12.9884    6.2952    0.0000 H   0  0  0  0  0  0  0  0  0  0  0  0
   12.1466    3.6550    0.0000 H   0  0  0  0  0  0  0  0  0  0  0  0
   11.5526    6.6754    0.0000 H   0  0  0  0  0  0  0  0  0  0  0  0
   10.4830    4.1170    0.0000 O   0  0  0  0  0  0  0  0  0  0  0  0
   10.2629    2.5322    0.0000 C   0  0  0  0  0  0  0  0  0  0  0  0
   11.8047    2.1049    0.0000 O   0  0  0  0  0  0  0  0  0  0  0  0
    9.6359    1.0604    0.0000 C   0  0  0  0  0  0  0  0  0  0  0  0
   11.0123    0.2445    0.0000 H   0  0  0  0  0  0  0  0  0  0  0  0
   -4.3469    0.2778    0.0000 H   0  0  0  0  0  0  0  0  0  0  0  0
   -2.4140   -2.0257    0.0000 H   0  0  0  0  0  0  0  0  0  0  0  0
   -1.1077   -2.3758    0.0000 H   0  0  0  0  0  0  0  0  0  0  0  0
    8.7333   -1.9741    0.0000 H   0  0  0  0  0  0  0  0  0  0  0  0
    9.7608   -1.3438    0.0000 H   0  0  0  0  0  0  0  0  0  0  0  0
  1  2  1  0  0  0  0
  2  3  1  0  0  0  0
  3  4  1  0  0  0  0
  4  2  1  0  0  0  0
  4  5  1  0  0  0  0
  4  6  1  0  0  0  0
  6  7  1  0  0  0  0
  6  8  1  0  0  0  0
  6  9  1  0  0  0  0
  9 10  1  0  0  0  0
 10 11  1  0  0  0  0
  9 12  1  0  0  0  0
  9 13  1  0  0  0  0
 13 14  1  0  0  0  0
 13 15  1  0  0  0  0
 13 16  1  0  0  0  0
 16 17  1  0  0  0  0
 17 18  1  0  0  0  0
 16 19  1  0  0  0  0
 19 20  1  0  0  0  0
 20 21  1  0  0  0  0
 21 22  1  0  0  0  0
 20 23  1  0  0  0  0
 23 24  1  0  0  0  0
 24 25  2  0  0  0  0
 24 26  1  0  0  0  0
 26 27  1  0  0  0  0
 23 28  1  0  0  0  0
 23 29  1  0  0  0  0
 29 30  1  0  0  0  0
 30 16  1  0  0  0  0
 29 31  1  0  0  0  0
 29 32  1  0  0  0  0
 32 33  1  0  0  0  0
 32 34  1  0  0  0  0
 32 35  1  0  0  0  0
 35 36  1  0  0  0  0
 36 37  1  0  0  0  0
 37 38  1  0  0  0  0
 38 39  1  0  0  0  0
 39 40  1  0  0  0  0
 38 41  1  0  0  0  0
 38 42  1  0  0  0  0
 42 43  1  0  0  0  0
 43 44  1  0  0  0  0
 43 45  1  0  0  0  0
 42 46  1  0  0  0  0
 42 47  1  0  0  0  0
 47 48  1  0  0  0  0
 48 49  1  0  0  0  0
 47 50  1  0  0  0  0
 47 51  1  0  0  0  0
 51 52  1  0  0  0  0
 52 53  1  0  0  0  0
 52 54  1  0  0  0  0
 52 55  1  0  0  0  0
 51 56  1  0  0  0  0
 51 57  1  0  0  0  0
 57 37  1  0  0  0  0
 37 58  1  0  0  0  0
 35 59  1  0  0  0  0
 35 60  1  0  0  0  0
 60 61  1  0  0  0  0
 60 62  2  0  0  0  0
 62 63  1  0  0  0  0
 62 64  1  0  0  0  0
 64 65  1  0  0  0  0
 64 66  2  0  0  0  0
 66 67  1  0  0  0  0
 66 68  1  0  0  0  0
 68 69  1  0  0  0  0
 68 70  2  0  0  0  0
 70 71  1  0  0  0  0
 70 72  1  0  0  0  0
 72 73  1  0  0  0  0
 72 74  2  0  0  0  0
 74 75  1  0  0  0  0
 74 76  1  0  0  0  0
 76 77  1  0  0  0  0
 76 78  1  0  0  0  0
 76 79  1  0  0  0  0
 79 80  1  0  0  0  0
 80 81  1  0  0  0  0
 80 82  1  0  0  0  0
 80 83  1  0  0  0  0
 79 84  1  0  0  0  0
 79 85  1  0  0  0  0
 85 86  1  0  0  0  0
 86 87  2  0  0  0  0
 86 88  1  0  0  0  0
 88  1  2  0  0  0  0
 88 89  1  0  0  0  0
 20 90  1  0  0  0  0
 19 91  1  0  0  0  0
 19 92  1  0  0  0  0
  2 93  1  0  0  0  0
  1 94  1  0  0  0  0
M  END
> <CAS>
7681-93-8

> <NAME>
PIMARICIN (Natamycin)

> <preferred_name>
Natamycin

> <iupac>
(1R,3S,5R,7R,8E,12R,14E,16E,18E,20E,22R,24S,25R,26S)-22-[(3-amino-3,6-dideoxy-beta-D-mannopyranosyl)oxy]-1,3,26-trihydroxy-12-methyl-10-oxo-6,11,28-trioxatricyclo[22.3.1.0~5,7~]octacosa-8,14,16,18,20-pentaene-25-carboxylic acid

> <SMILES>
C[C@@H]1CC=CC=CC=CC=C[C@@H](C[C@@H]2O[C@@](O)(C[C@H](O)[C@H]2C(O)=O)C[C@@H](O)C[C@H]2O[C@@H]2C=CC(=O)O1)O[C@@H]1O[C@H](C)[C@@H](O)[C@H](N)[C@@H]1O |t:3,5,7,9,33|

> <Canonical_QSARr>
CC1CC=CC=CC=CC=CC(CC2OC(O)(CC(O)C2C(O)=O)CC(O)CC2OC2C=CC(=O)O1)OC1OC(C)C(O)C(N)C1O

> <InChI_Code_QSARr>
InChI=1S/C33H47NO13/c1-18-10-8-6-4-3-5-7-9-11-21(45-32-30(39)28(34)29(38)19(2)44-32)15-25-27(31(40)41)22(36)17-33(42,47-25)16-20(35)14-24-23(46-24)12-13-26(37)43-18/h3-9,11-13,18-25,27-30,32,35-36,38-39,42H,10,14-17,34H2,1-2H3,(H,40,41)/b4-3-,7-5-,8-6-,11-9-,13-12-

> <InChI Key_QSARr>
NCXMLFZGDNKEPB-LWPPBCDZSA-N

> <Salt_Solvent>
?

> <WS Temperature>
21

> <WS Reference>
TOMLIN,C (1994)

> <dsstox_substance_id>
DTXSID6021163

> <LogMolar>
-2.2105

$$$$
7720-42-5
  -INDIGO-01081615412D

 21 22  0  0  0  0  0  0  0  0999 V2000
    0.0001    0.0000    0.0000 C   0  0  0  0  0  0  0  0  0  0  0  0
   -1.6000    0.0000    0.0000 C   0  0  0  0  0  0  0  0  0  0  0  0
   -2.4000    1.3856    0.0000 C   0  0  0  0  0  0  0  0  0  0  0  0
   -4.0000    1.3856    0.0000 O   0  0  0  0  0  0  0  0  0  0  0  0
   -4.8000    2.7713    0.0000 H   0  0  0  0  0  0  0  0  0  0  0  0
   -1.6000    2.7713    0.0000 O   0  0  0  0  0  0  0  0  0  0  0  0
   -2.4000   -1.3856    0.0000 C   0  0  0  0  0  0  0  0  0  0  0  0
   -4.0000   -1.3856    0.0000 Cl  0  0  0  0  0  0  0  0  0  0  0  0
   -1.6000   -2.7713    0.0000 C   0  0  0  0  0  0  0  0  0  0  0  0
   -2.4000   -4.1569    0.0000 H   0  0  0  0  0  0  0  0  0  0  0  0
    0.0001   -2.7713    0.0000 C   0  0  0  0  0  0  0  0  0  0  0  0
    0.8000   -4.1569    0.0000 H   0  0  0  0  0  0  0  0  0  0  0  0
    0.8000   -1.3856    0.0000 C   0  0  0  0  0  0  0  0  0  0  0  0
    2.4000   -1.3856    0.0000 C   0  0  0  0  0  0  0  0  0  0  0  0
    3.2001   -2.7713    0.0000 H   0  0  0  0  0  0  0  0  0  0  0  0
    3.2001    0.0000    0.0000 C   0  0  0  0  0  0  0  0  0  0  0  0
    4.8000    0.0000    0.0000 H   0  0  0  0  0  0  0  0  0  0  0  0
    2.4000    1.3856    0.0000 C   0  0  0  0  0  0  0  0  0  0  0  0
    3.2001    2.7713    0.0000 H   0  0  0  0  0  0  0  0  0  0  0  0
    0.8000    1.3856    0.0000 C   0  0  0  0  0  0  0  0  0  0  0  0
    0.0001    2.7713    0.0000 H   0  0  0  0  0  0  0  0  0  0  0  0
  1  2  4  0  0  0  0
  2  3  1  0  0  0  0
  3  4  1  0  0  0  0
  4  5  1  0  0  0  0
  3  6  2  0  0  0  0
  2  7  4  0  0  0  0
  7  8  1  0  0  0  0
  7  9  4  0  0  0  0
  9 10  1  0  0  0  0
  9 11  4  0  0  0  0
 11 12  1  0  0  0  0
 11 13  4  0  0  0  0
 13  1  4  0  0  0  0
 13 14  4  0  0  0  0
 14 15  1  0  0  0  0
 14 16  4  0  0  0  0
 16 17  1  0  0  0  0
 16 18  4  0  0  0  0
 18 19  1  0  0  0  0
 18 20  4  0  0  0  0
 20  1  4  0  0  0  0
 20 21  1  0  0  0  0
M  END
> <CAS>
7720-42-5

> <NAME>
1-Naphthalenecarboxylic acid, 2-chloro-

> <preferred_name>


> <iupac>


> <SMILES>
OC(=O)c1c(Cl)ccc2ccccc21

> <Canonical_QSARr>
OC(=O)c1c(Cl)ccc2ccccc21

> <InChI_Code_QSARr>
InChI=1S/C11H7ClO2/c12-9-6-5-7-3-1-2-4-8(7)10(9)11(13)14/h1-6H,(H,13,14)

> <InChI Key_QSARr>
HUNGHFUNVZTRKO-UHFFFAOYSA-N

> <Salt_Solvent>
?

> <WS Temperature>
20

> <WS Reference>
BEILSTEIN

> <dsstox_substance_id>


> <LogMolar>
-2.3152

$$$$
10004-44-1
  -INDIGO-01081615412D

 12 12  0  0  0  0  0  0  0  0999 V2000
   -3.0349    2.8161    0.0000 O   0  0  0  0  0  0  0  0  0  0  0  0
   -2.0944    1.5217    0.0000 C   0  0  0  0  0  0  0  0  0  0  0  0
   -2.5888   -0.0000    0.0000 N   0  0  0  0  0  0  0  0  0  0  0  0
   -4.1105   -0.4945    0.0000 H   0  0  0  0  0  0  0  0  0  0  0  0
   -1.2944   -0.9405    0.0000 O   0  0  0  0  0  0  0  0  0  0  0  0
   -0.0001   -0.0000    0.0000 C   0  0  0  0  0  0  0  0  0  0  0  0
    1.5217   -0.4945    0.0000 C   0  0  0  0  0  0  0  0  0  0  0  0
    3.0434   -0.9888    0.0000 H   0  0  0  0  0  0  0  0  0  0  0  0
    1.8544   -2.0595    0.0000 H   0  0  0  0  0  0  0  0  0  0  0  0
    2.7108    0.5762    0.0000 H   0  0  0  0  0  0  0  0  0  0  0  0
   -0.4944    1.5217    0.0000 C   0  0  0  0  0  0  0  0  0  0  0  0
    0.4460    2.8161    0.0000 H   0  0  0  0  0  0  0  0  0  0  0  0
  1  2  2  0  0  0  0
  2  3  1  0  0  0  0
  3  4  1  0  0  0  0
  3  5  1  0  0  0  0
  5  6  1  0  0  0  0
  6  7  1  0  0  0  0
  7  8  1  0  0  0  0
  7  9  1  0  0  0  0
  7 10  1  0  0  0  0
  6 11  2  0  0  0  0
 11  2  1  0  0  0  0
 11 12  1  0  0  0  0
M  END
> <CAS>
10004-44-1

> <NAME>
3-HYDROXY-5-METHYLISOXAZOLE

> <preferred_name>
Hymexazol

> <iupac>
5-methyl-1,2-oxazol-3(2H)-one

> <SMILES>
CC1=CC(=O)NO1

> <Canonical_QSARr>
CC1=CC(=O)NO1

> <InChI_Code_QSARr>
InChI=1S/C4H5NO2/c1-3-2-4(6)5-7-3/h2H,1H3,(H,5,6)

> <InChI Key_QSARr>
KGVPNLBXJKTABS-UHFFFAOYSA-N

> <Salt_Solvent>
?

> <WS Temperature>
25

> <WS Reference>
YALKOWSKY,SH & DANNENFELSER,RM (1992)

> <dsstox_substance_id>
DTXSID3032622

> <LogMolar>
-0.0666

$$$$
10031-87-5
  -INDIGO-01081615412D

 26 25  0  0  0  0  0  0  0  0999 V2000
   -0.0000    0.0000    0.0000 C   0  0  0  0  0  0  0  0  0  0  0  0
   -1.0285   -1.2256    0.0000 C   0  0  0  0  0  0  0  0  0  0  0  0
   -2.0569   -2.4513    0.0000 C   0  0  0  0  0  0  0  0  0  0  0  0
   -3.0854   -3.6770    0.0000 H   0  0  0  0  0  0  0  0  0  0  0  0
   -1.5096   -3.9549    0.0000 H   0  0  0  0  0  0  0  0  0  0  0  0
   -3.6326   -2.1735    0.0000 H   0  0  0  0  0  0  0  0  0  0  0  0
    0.1973   -2.2542    0.0000 H   0  0  0  0  0  0  0  0  0  0  0  0
   -2.6041   -0.9478    0.0000 H   0  0  0  0  0  0  0  0  0  0  0  0
    1.5757    0.2779    0.0000 C   0  0  0  0  0  0  0  0  0  0  0  0
    3.1513    0.5557    0.0000 C   0  0  0  0  0  0  0  0  0  0  0  0
    4.7271    0.8335    0.0000 H   0  0  0  0  0  0  0  0  0  0  0  0
    4.1798   -0.6700    0.0000 H   0  0  0  0  0  0  0  0  0  0  0  0
    3.6986    2.0592    0.0000 H   0  0  0  0  0  0  0  0  0  0  0  0
    1.8536   -1.2979    0.0000 H   0  0  0  0  0  0  0  0  0  0  0  0
    1.8536    1.8536    0.0000 H   0  0  0  0  0  0  0  0  0  0  0  0
   -0.3200    0.5542    0.0000 C   0  0  0  0  0  0  0  0  0  0  0  0
   -1.1200    1.9399    0.0000 O   0  0  0  0  0  0  0  0  0  0  0  0
   -2.7199    1.9399    0.0000 C   0  0  0  0  0  0  0  0  0  0  0  0
   -3.5201    0.5542    0.0000 O   0  0  0  0  0  0  0  0  0  0  0  0
   -3.5201    3.3255    0.0000 C   0  0  0  0  0  0  0  0  0  0  0  0
   -4.3200    4.7112    0.0000 H   0  0  0  0  0  0  0  0  0  0  0  0
   -5.1200    3.3255    0.0000 H   0  0  0  0  0  0  0  0  0  0  0  0
   -2.7199    4.7112    0.0000 H   0  0  0  0  0  0  0  0  0  0  0  0
    0.7085    1.7799    0.0000 H   0  0  0  0  0  0  0  0  0  0  0  0
   -1.7057   -0.2458    0.0000 H   0  0  0  0  0  0  0  0  0  0  0  0
    0.8000   -1.3857    0.0000 H   0  0  0  0  0  0  0  0  0  0  0  0
  1  2  1  0  0  0  0
  2  3  1  0  0  0  0
  3  4  1  0  0  0  0
  3  5  1  0  0  0  0
  3  6  1  0  0  0  0
  2  7  1  0  0  0  0
  2  8  1  0  0  0  0
  1  9  1  0  0  0  0
  9 10  1  0  0  0  0
 10 11  1  0  0  0  0
 10 12  1  0  0  0  0
 10 13  1  0  0  0  0
  9 14  1  0  0  0  0
  9 15  1  0  0  0  0
  1 16  1  0  0  0  0
 16 17  1  0  0  0  0
 17 18  1  0  0  0  0
 18 19  2  0  0  0  0
 18 20  1  0  0  0  0
 20 21  1  0  0  0  0
 20 22  1  0  0  0  0
 20 23  1  0  0  0  0
 16 24  1  0  0  0  0
 16 25  1  0  0  0  0
  1 26  1  0  0  0  0
M  END
> <CAS>
10031-87-5

> <NAME>
1-Butanol, 2-ethyl-, acetate

> <preferred_name>
Acetic acid, 2-ethylbutyl ester

> <iupac>
2-Ethylbutyl acetate

> <SMILES>
CC(=O)OCC(CC)CC

> <Canonical_QSARr>
CC(=O)OCC(CC)CC

> <InChI_Code_QSARr>
InChI=1S/C8H16O2/c1-4-8(5-2)6-10-7(3)9/h8H,4-6H2,1-3H3

> <InChI Key_QSARr>
HQLKZWRSOHTERR-UHFFFAOYSA-N

> <Salt_Solvent>
?

> <WS Temperature>
20

> <WS Reference>
BEILSTEIN

> <dsstox_substance_id>
DTXSID5064916

> <LogMolar>
-1.3528

$$$$
10118-90-8
  -INDIGO-01081615412D

 60 63  0  0  0  0  0  0  0  0999 V2000
   -0.0001    1.6000    0.0000 C   0  0  0  0  0  0  0  0  0  0  0  0
   -0.5473    3.1035    0.0000 O   0  0  0  0  0  0  0  0  0  0  0  0
    0.4811    4.3292    0.0000 H   0  0  0  0  0  0  0  0  0  0  0  0
   -1.3856    2.4000    0.0000 C   0  0  0  0  0  0  0  0  0  0  0  0
   -1.3856    4.0000    0.0000 O   0  0  0  0  0  0  0  0  0  0  0  0
   -2.7713    4.8000    0.0000 H   0  0  0  0  0  0  0  0  0  0  0  0
   -2.7713    1.6000    0.0000 C   0  0  0  0  0  0  0  0  0  0  0  0
   -4.1569    2.4000    0.0000 C   0  0  0  0  0  0  0  0  0  0  0  0
   -5.5426    1.6000    0.0000 C   0  0  0  0  0  0  0  0  0  0  0  0
   -6.9281    2.4000    0.0000 C   0  0  0  0  0  0  0  0  0  0  0  0
   -6.9281    4.0000    0.0000 O   0  0  0  0  0  0  0  0  0  0  0  0
   -8.3138    4.8000    0.0000 H   0  0  0  0  0  0  0  0  0  0  0  0
   -8.3138    1.6000    0.0000 C   0  0  0  0  0  0  0  0  0  0  0  0
   -9.6995    2.4000    0.0000 H   0  0  0  0  0  0  0  0  0  0  0  0
   -8.3138    0.0000    0.0000 C   0  0  0  0  0  0  0  0  0  0  0  0
   -9.6995   -0.8000    0.0000 H   0  0  0  0  0  0  0  0  0  0  0  0
   -6.9281   -0.8000    0.0000 C   0  0  0  0  0  0  0  0  0  0  0  0
   -6.9281   -2.4000    0.0000 N   0  0  0  0  0  0  0  0  0  0  0  0
   -8.3138   -3.2000    0.0000 C   0  0  0  0  0  0  0  0  0  0  0  0
   -9.6995   -4.0000    0.0000 H   0  0  0  0  0  0  0  0  0  0  0  0
   -8.3138   -4.8000    0.0000 H   0  0  0  0  0  0  0  0  0  0  0  0
   -9.6995   -2.4000    0.0000 H   0  0  0  0  0  0  0  0  0  0  0  0
   -5.5426   -3.2000    0.0000 C   0  0  0  0  0  0  0  0  0  0  0  0
   -5.5426   -4.8000    0.0000 H   0  0  0  0  0  0  0  0  0  0  0  0
   -4.1569   -4.0000    0.0000 H   0  0  0  0  0  0  0  0  0  0  0  0
   -6.9281   -4.0000    0.0000 H   0  0  0  0  0  0  0  0  0  0  0  0
   -5.5426    0.0000    0.0000 C   0  0  0  0  0  0  0  0  0  0  0  0
   -4.1569   -0.8000    0.0000 C   0  0  0  0  0  0  0  0  0  0  0  0
   -5.1853   -2.0256    0.0000 H   0  0  0  0  0  0  0  0  0  0  0  0
   -3.6098   -2.3035    0.0000 H   0  0  0  0  0  0  0  0  0  0  0  0
   -2.7713    0.0000    0.0000 C   0  0  0  0  0  0  0  0  0  0  0  0
   -2.7713   -1.6000    0.0000 H   0  0  0  0  0  0  0  0  0  0  0  0
   -1.3856   -0.8000    0.0000 C   0  0  0  0  0  0  0  0  0  0  0  0
   -1.9329   -2.3035    0.0000 H   0  0  0  0  0  0  0  0  0  0  0  0
   -0.8384   -2.3035    0.0000 H   0  0  0  0  0  0  0  0  0  0  0  0
   -0.0001    0.0000    0.0000 C   0  0  0  0  0  0  0  0  0  0  0  0
   -0.0001   -1.6000    0.0000 H   0  0  0  0  0  0  0  0  0  0  0  0
    1.3856   -0.8000    0.0000 C   0  0  0  0  0  0  0  0  0  0  0  0
    2.4142   -2.0256    0.0000 N   0  0  0  0  0  0  0  0  0  0  0  0
    3.9897   -1.7478    0.0000 C   0  0  0  0  0  0  0  0  0  0  0  0
    5.0183   -2.9736    0.0000 H   0  0  0  0  0  0  0  0  0  0  0  0
    5.5655   -1.4701    0.0000 H   0  0  0  0  0  0  0  0  0  0  0  0
    3.4426   -3.2513    0.0000 H   0  0  0  0  0  0  0  0  0  0  0  0
    1.8668   -3.5292    0.0000 C   0  0  0  0  0  0  0  0  0  0  0  0
    2.8954   -4.7548    0.0000 H   0  0  0  0  0  0  0  0  0  0  0  0
    1.3197   -5.0327    0.0000 H   0  0  0  0  0  0  0  0  0  0  0  0
    0.2913   -3.8070    0.0000 H   0  0  0  0  0  0  0  0  0  0  0  0
    0.8384   -2.3035    0.0000 H   0  0  0  0  0  0  0  0  0  0  0  0
    2.7713    0.0000    0.0000 C   0  0  0  0  0  0  0  0  0  0  0  0
    4.1570   -0.8000    0.0000 O   0  0  0  0  0  0  0  0  0  0  0  0
    5.5427    0.0000    0.0000 H   0  0  0  0  0  0  0  0  0  0  0  0
    2.7713    1.6000    0.0000 C   0  0  0  0  0  0  0  0  0  0  0  0
    4.1570    2.4000    0.0000 C   0  0  0  0  0  0  0  0  0  0  0  0
    4.1570    4.0000    0.0000 N   0  0  0  0  0  0  0  0  0  0  0  0
    5.5427    4.8000    0.0000 H   0  0  0  0  0  0  0  0  0  0  0  0
    2.7713    4.8000    0.0000 H   0  0  0  0  0  0  0  0  0  0  0  0
    5.5427    1.6000    0.0000 O   0  0  0  0  0  0  0  0  0  0  0  0
    1.3856    2.4000    0.0000 C   0  0  0  0  0  0  0  0  0  0  0  0
    1.3856    4.0000    0.0000 O   0  0  0  0  0  0  0  0  0  0  0  0
   -4.1569    4.0000    0.0000 O   0  0  0  0  0  0  0  0  0  0  0  0
  1  2  1  0  0  0  0
  2  3  1  0  0  0  0
  1  4  1  0  0  0  0
  4  5  1  0  0  0  0
  5  6  1  0  0  0  0
  4  7  2  0  0  0  0
  7  8  1  0  0  0  0
  8  9  1  0  0  0  0
  9 10  4  0  0  0  0
 10 11  1  0  0  0  0
 11 12  1  0  0  0  0
 10 13  4  0  0  0  0
 13 14  1  0  0  0  0
 13 15  4  0  0  0  0
 15 16  1  0  0  0  0
 15 17  4  0  0  0  0
 17 18  1  0  0  0  0
 18 19  1  0  0  0  0
 19 20  1  0  0  0  0
 19 21  1  0  0  0  0
 19 22  1  0  0  0  0
 18 23  1  0  0  0  0
 23 24  1  0  0  0  0
 23 25  1  0  0  0  0
 23 26  1  0  0  0  0
 17 27  4  0  0  0  0
 27  9  4  0  0  0  0
 27 28  1  0  0  0  0
 28 29  1  0  0  0  0
 28 30  1  0  0  0  0
 28 31  1  0  0  0  0
 31  7  1  0  0  0  0
 31 32  1  0  0  0  0
 31 33  1  0  0  0  0
 33 34  1  0  0  0  0
 33 35  1  0  0  0  0
 33 36  1  0  0  0  0
 36  1  1  0  0  0  0
 36 37  1  0  0  0  0
 36 38  1  0  0  0  0
 38 39  1  0  0  0  0
 39 40  1  0  0  0  0
 40 41  1  0  0  0  0
 40 42  1  0  0  0  0
 40 43  1  0  0  0  0
 39 44  1  0  0  0  0
 44 45  1  0  0  0  0
 44 46  1  0  0  0  0
 44 47  1  0  0  0  0
 38 48  1  0  0  0  0
 38 49  1  0  0  0  0
 49 50  1  0  0  0  0
 50 51  1  0  0  0  0
 49 52  2  0  0  0  0
 52 53  1  0  0  0  0
 53 54  1  0  0  0  0
 54 55  1  0  0  0  0
 54 56  1  0  0  0  0
 53 57  2  0  0  0  0
 52 58  1  0  0  0  0
 58  1  1  0  0  0  0
 58 59  2  0  0  0  0
  8 60  2  0  0  0  0
M  END
> <CAS>
10118-90-8

> <NAME>
MINOCYCLINE

> <preferred_name>
Minocycline

> <iupac>
(4S,4aS,5aR,12aS)-4,7-bis(dimethylamino)-3,10,12,12a-tetrahydroxy-1,11-dioxo-1,4,4a,5,5a,6,11,12a-octahydrotetracene-2-carboxamide

> <SMILES>
CN(C)c1ccc(O)c2c1C[C@H]1C[C@H]3[C@@H](C(O)=C(C(N)=O)C(=O)[C@@]3(O)C(O)=C1C2=O)N(C)C

> <Canonical_QSARr>
CN(C)c1ccc(O)c2c1CC1CC3C(C(O)=C(C(N)=O)C(=O)C3(O)C(O)=C1C2=O)N(C)C

> <InChI_Code_QSARr>
InChI=1S/C23H27N3O7/c1-25(2)12-5-6-13(27)15-10(12)7-9-8-11-17(26(3)4)19(29)16(22(24)32)21(31)23(11,33)20(30)14(9)18(15)28/h5-6,9,11,17,27,29-30,33H,7-8H2,1-4H3,(H2,24,32)

> <InChI Key_QSARr>
DYKFCLLONBREIL-UHFFFAOYSA-N

> <Salt_Solvent>
?

> <WS Temperature>
25

> <WS Reference>
YALKOWSKY,SH & DANNENFELSER,RM (1992)

> <dsstox_substance_id>
DTXSID1045033

> <LogMolar>
-0.9444

$$$$
10222-01-2
  -INDIGO-01081615412D

 10  9  0  0  0  0  0  0  0  0999 V2000
   -1.3856    0.8000    0.0000 C   0  0  0  0  0  0  0  0  0  0  0  0
    0.0000    0.0000    0.0000 C   0  0  0  0  0  0  0  0  0  0  0  0
    1.3856   -0.8000    0.0000 C   0  0  0  0  0  0  0  0  0  0  0  0
    2.7713    0.0000    0.0000 N   0  0  0  0  0  0  0  0  0  0  0  0
    4.1569   -0.8000    0.0000 H   0  0  0  0  0  0  0  0  0  0  0  0
    2.7713    1.6000    0.0000 H   0  0  0  0  0  0  0  0  0  0  0  0
    1.3856   -2.4000    0.0000 O   0  0  0  0  0  0  0  0  0  0  0  0
    0.8000    1.3856    0.0000 Br  0  0  0  0  0  0  0  0  0  0  0  0
   -0.8000   -1.3856    0.0000 Br  0  0  0  0  0  0  0  0  0  0  0  0
   -2.7713    1.6000    0.0000 N   0  0  0  0  0  0  0  0  0  0  0  0
  1  2  1  0  0  0  0
  2  3  1  0  0  0  0
  3  4  1  0  0  0  0
  4  5  1  0  0  0  0
  4  6  1  0  0  0  0
  3  7  2  0  0  0  0
  2  8  1  0  0  0  0
  2  9  1  0  0  0  0
  1 10  3  0  0  0  0
M  END
> <CAS>
10222-01-2

> <NAME>
2,2-DIBROMO-2-CYANOACETAMIDE

> <preferred_name>
2,2-Dibromo-3-nitrilopropionamide

> <iupac>
2,2-dibromo-2-cyanoacetamide

> <SMILES>
NC(=O)C(Br)(Br)C#N

> <Canonical_QSARr>
NC(=O)C(Br)(Br)C#N

> <InChI_Code_QSARr>
InChI=1S/C3H2Br2N2O/c4-3(5,1-6)2(7)8/h(H2,7,8)

> <InChI Key_QSARr>
UUIVKBHZENILKB-UHFFFAOYSA-N

> <Salt_Solvent>
?

> <WS Temperature>
25

> <WS Reference>
USEPA RED; Case# 3056

> <dsstox_substance_id>
DTXSID5032361

> <LogMolar>
-1.2075

$$$$
10311-84-9
  -INDIGO-01081615412D

 40 41  0  0  0  0  0  0  0  0999 V2000
   -1.3855    0.8000    0.0000 N   0  0  0  0  0  0  0  0  0  0  0  0
   -2.8472    0.1492    0.0000 C   0  0  0  0  0  0  0  0  0  0  0  0
   -3.1799   -1.4158    0.0000 O   0  0  0  0  0  0  0  0  0  0  0  0
   -3.9179    1.3382    0.0000 C   0  0  0  0  0  0  0  0  0  0  0  0
   -5.5179    1.3382    0.0000 C   0  0  0  0  0  0  0  0  0  0  0  0
   -6.3179    2.7239    0.0000 C   0  0  0  0  0  0  0  0  0  0  0  0
   -5.5179    4.1095    0.0000 C   0  0  0  0  0  0  0  0  0  0  0  0
   -3.9179    4.1095    0.0000 C   0  0  0  0  0  0  0  0  0  0  0  0
   -3.1179    5.4951    0.0000 H   0  0  0  0  0  0  0  0  0  0  0  0
   -3.1179    2.7239    0.0000 C   0  0  0  0  0  0  0  0  0  0  0  0
   -1.5529    2.3913    0.0000 C   0  0  0  0  0  0  0  0  0  0  0  0
   -0.3638    3.4619    0.0000 O   0  0  0  0  0  0  0  0  0  0  0  0
   -6.3179    5.4951    0.0000 H   0  0  0  0  0  0  0  0  0  0  0  0
   -7.9179    2.7239    0.0000 H   0  0  0  0  0  0  0  0  0  0  0  0
   -6.3179   -0.0474    0.0000 H   0  0  0  0  0  0  0  0  0  0  0  0
    0.0001    0.0000    0.0000 C   0  0  0  0  0  0  0  0  0  0  0  0
    0.8001   -1.3857    0.0000 C   0  0  0  0  0  0  0  0  0  0  0  0
    1.5999   -2.7713    0.0000 Cl  0  0  0  0  0  0  0  0  0  0  0  0
    0.0001   -2.7713    0.0000 H   0  0  0  0  0  0  0  0  0  0  0  0
    2.3999   -1.3857    0.0000 H   0  0  0  0  0  0  0  0  0  0  0  0
    0.8001    1.3856    0.0000 S   0  0  0  0  0  0  0  0  0  0  0  0
    2.3758    1.6634    0.0000 P   0  0  0  0  0  0  0  0  0  0  0  0
    2.3758    0.0635    0.0000 S   0  0  0  0  0  0  0  0  0  0  0  0
    3.9515    1.9413    0.0000 O   0  0  0  0  0  0  0  0  0  0  0  0
    4.9799    0.7156    0.0000 C   0  0  0  0  0  0  0  0  0  0  0  0
    6.2056    1.7441    0.0000 C   0  0  0  0  0  0  0  0  0  0  0  0
    7.4312    2.7725    0.0000 H   0  0  0  0  0  0  0  0  0  0  0  0
    7.7090    1.1969    0.0000 H   0  0  0  0  0  0  0  0  0  0  0  0
    5.9278    3.3199    0.0000 H   0  0  0  0  0  0  0  0  0  0  0  0
    6.0084   -0.5100    0.0000 H   0  0  0  0  0  0  0  0  0  0  0  0
    3.7541   -0.3128    0.0000 H   0  0  0  0  0  0  0  0  0  0  0  0
    2.0978    3.2392    0.0000 O   0  0  0  0  0  0  0  0  0  0  0  0
    3.3234    4.2677    0.0000 C   0  0  0  0  0  0  0  0  0  0  0  0
    2.2950    5.4933    0.0000 C   0  0  0  0  0  0  0  0  0  0  0  0
    1.2665    6.7190    0.0000 H   0  0  0  0  0  0  0  0  0  0  0  0
    2.8422    6.9968    0.0000 H   0  0  0  0  0  0  0  0  0  0  0  0
    0.7193    5.2155    0.0000 H   0  0  0  0  0  0  0  0  0  0  0  0
    4.5493    5.2961    0.0000 H   0  0  0  0  0  0  0  0  0  0  0  0
    4.3521    3.0420    0.0000 H   0  0  0  0  0  0  0  0  0  0  0  0
   -0.7999   -1.3857    0.0000 H   0  0  0  0  0  0  0  0  0  0  0  0
  1  2  1  0  0  0  0
  2  3  2  0  0  0  0
  2  4  1  0  0  0  0
  4  5  4  0  0  0  0
  5  6  4  0  0  0  0
  6  7  4  0  0  0  0
  7  8  4  0  0  0  0
  8  9  1  0  0  0  0
  8 10  4  0  0  0  0
 10  4  4  0  0  0  0
 10 11  1  0  0  0  0
 11  1  1  0  0  0  0
 11 12  2  0  0  0  0
  7 13  1  0  0  0  0
  6 14  1  0  0  0  0
  5 15  1  0  0  0  0
  1 16  1  0  0  0  0
 16 17  1  0  0  0  0
 17 18  1  0  0  0  0
 17 19  1  0  0  0  0
 17 20  1  0  0  0  0
 16 21  1  0  0  0  0
 21 22  1  0  0  0  0
 22 23  2  0  0  0  0
 22 24  1  0  0  0  0
 24 25  1  0  0  0  0
 25 26  1  0  0  0  0
 26 27  1  0  0  0  0
 26 28  1  0  0  0  0
 26 29  1  0  0  0  0
 25 30  1  0  0  0  0
 25 31  1  0  0  0  0
 22 32  1  0  0  0  0
 32 33  1  0  0  0  0
 33 34  1  0  0  0  0
 34 35  1  0  0  0  0
 34 36  1  0  0  0  0
 34 37  1  0  0  0  0
 33 38  1  0  0  0  0
 33 39  1  0  0  0  0
 16 40  1  0  0  0  0
M  END
> <CAS>
10311-84-9

> <NAME>
DIALIFOR

> <preferred_name>
Dialifor

> <iupac>
S-[2-chloro-1-(1,3-dioxo-1,3-dihydro-2H-isoindol-2-yl)ethyl] O,O-diethyl phosphorodithioate

> <SMILES>
CCOP(=S)(OCC)SC(CCl)N1C(=O)c2ccccc2C1=O

> <Canonical_QSARr>
CCOP(=S)(OCC)SC(CCl)N1C(=O)c2ccccc2C1=O

> <InChI_Code_QSARr>
InChI=1S/C14H17ClNO4PS2/c1-3-19-21(22,20-4-2)23-12(9-15)16-13(17)10-7-5-6-8-11(10)14(16)18/h5-8,12H,3-4,9H2,1-2H3

> <InChI Key_QSARr>
MUMQYXACQUZOFP-UHFFFAOYSA-N

> <Salt_Solvent>
?

> <WS Temperature>
25

> <WS Reference>
FREED,VH ET AL. (1979A)

> <dsstox_substance_id>
DTXSID0037522

> <LogMolar>
-6.3401

$$$$
10354-56-0
  -INDIGO-01081615412D

 31 32  0  0  0  0  0  0  0  0999 V2000
    6.9618    0.4153    0.0000 N   0  0  0  1  0  0  0  0  0  0  0  0
    5.4584    0.9625    0.0000 C   0  0  0  0  0  0  0  0  0  0  0  0
    5.1805    2.5382    0.0000 H   0  0  0  0  0  0  0  0  0  0  0  0
    4.2326   -0.0660    0.0000 C   0  0  0  0  0  0  0  0  0  0  0  0
    2.7292    0.4812    0.0000 C   0  0  0  0  0  0  0  0  0  0  0  0
    1.5036   -0.5472    0.0000 N   0  0  0  0  0  0  0  0  0  0  0  0
   -0.0001    0.0000    0.0000 C   0  0  0  0  0  0  0  0  0  0  0  0
   -0.8000    1.3856    0.0000 C   0  0  0  0  0  0  0  0  0  0  0  0
    0.7034    1.9329    0.0000 H   0  0  0  0  0  0  0  0  0  0  0  0
   -1.0777    2.9613    0.0000 H   0  0  0  0  0  0  0  0  0  0  0  0
   -2.4000    1.3856    0.0000 C   0  0  0  0  0  0  0  0  0  0  0  0
   -2.1222    2.9613    0.0000 H   0  0  0  0  0  0  0  0  0  0  0  0
   -3.9034    1.9329    0.0000 H   0  0  0  0  0  0  0  0  0  0  0  0
   -3.1999    0.0000    0.0000 C   0  0  0  0  0  0  0  0  0  0  0  0
   -4.4257    1.0285    0.0000 H   0  0  0  0  0  0  0  0  0  0  0  0
   -4.4257   -1.0285    0.0000 H   0  0  0  0  0  0  0  0  0  0  0  0
   -2.4000   -1.3856    0.0000 C   0  0  0  0  0  0  0  0  0  0  0  0
   -3.9034   -1.9329    0.0000 H   0  0  0  0  0  0  0  0  0  0  0  0
   -2.1222   -2.9613    0.0000 H   0  0  0  0  0  0  0  0  0  0  0  0
   -0.8000   -1.3856    0.0000 C   0  0  0  0  0  0  0  0  0  0  0  0
   -1.0777   -2.9613    0.0000 H   0  0  0  0  0  0  0  0  0  0  0  0
    0.5857   -2.1856    0.0000 H   0  0  0  0  0  0  0  0  0  0  0  0
    1.2257    1.0285    0.0000 H   0  0  0  0  0  0  0  0  0  0  0  0
    1.7813   -2.1229    0.0000 H   0  0  0  0  0  0  0  0  0  0  0  0
    2.4512    2.0569    0.0000 O   0  0  0  0  0  0  0  0  0  0  0  0
    4.5105   -1.6417    0.0000 C   0  0  0  0  0  0  0  0  0  0  0  0
    3.2848   -2.6702    0.0000 H   0  0  0  0  0  0  0  0  0  0  0  0
    6.0140   -2.1889    0.0000 C   0  0  0  0  0  0  0  0  0  0  0  0
    6.2919   -3.7646    0.0000 H   0  0  0  0  0  0  0  0  0  0  0  0
    7.2397   -1.1604    0.0000 C   0  0  0  0  0  0  0  0  0  0  0  0
    8.7432   -1.7077    0.0000 H   0  0  0  0  0  0  0  0  0  0  0  0
  1  2  4  0  0  0  0
  2  3  1  0  0  0  0
  2  4  4  0  0  0  0
  4  5  1  0  0  0  0
  5  6  1  0  0  0  0
  6  7  1  0  0  0  0
  7  8  1  0  0  0  0
  8  9  1  0  0  0  0
  8 10  1  0  0  0  0
  8 11  1  0  0  0  0
 11 12  1  0  0  0  0
 11 13  1  0  0  0  0
 11 14  1  0  0  0  0
 14 15  1  0  0  0  0
 14 16  1  0  0  0  0
 14 17  1  0  0  0  0
 17 18  1  0  0  0  0
 17 19  1  0  0  0  0
 17 20  1  0  0  0  0
 20  7  1  0  0  0  0
 20 21  1  0  0  0  0
 20 22  1  0  0  0  0
  7 23  1  0  0  0  0
  6 24  1  0  0  0  0
  5 25  2  0  0  0  0
  4 26  4  0  0  0  0
 26 27  1  0  0  0  0
 26 28  4  0  0  0  0
 28 29  1  0  0  0  0
 28 30  4  0  0  0  0
 30  1  4  0  0  0  0
 30 31  1  0  0  0  0
M  END
> <CAS>
10354-56-0

> <NAME>
3-Pyridinecarboxamide, N-cyclohexyl-

> <preferred_name>


> <iupac>


> <SMILES>
O=C(NC1CCCCC1)c1ccc[n]c1

> <Canonical_QSARr>
O=C(NC1CCCCC1)c1ccc[n]c1

> <InChI_Code_QSARr>
InChI=1S/C12H16N2O/c15-12(10-5-4-8-13-9-10)14-11-6-2-1-3-7-11/h4-5,8-9,11H,1-3,6-7H2,(H,14,15)

> <InChI Key_QSARr>
VQRIASKDLZXYTO-UHFFFAOYSA-N

> <Salt_Solvent>
?

> <WS Temperature>
25

> <WS Reference>
BEILSTEIN

> <dsstox_substance_id>


> <LogMolar>
-2.319

$$$$
10443-70-6
  -INDIGO-01081615412D

 34 34  0  0  0  0  0  0  0  0999 V2000
   -3.2000    0.0000    0.0000 C   0  0  0  0  0  0  0  0  0  0  0  0
   -4.0001   -1.3856    0.0000 O   0  0  0  0  0  0  0  0  0  0  0  0
   -4.0001    1.3857    0.0000 O   0  0  0  0  0  0  0  0  0  0  0  0
   -5.6000    1.3857    0.0000 C   0  0  0  0  0  0  0  0  0  0  0  0
   -7.2001    1.3857    0.0000 C   0  0  0  0  0  0  0  0  0  0  0  0
   -8.8000    1.3857    0.0000 H   0  0  0  0  0  0  0  0  0  0  0  0
   -7.9999    2.7713    0.0000 H   0  0  0  0  0  0  0  0  0  0  0  0
   -7.9999    0.0000    0.0000 H   0  0  0  0  0  0  0  0  0  0  0  0
   -5.6000    2.9856    0.0000 H   0  0  0  0  0  0  0  0  0  0  0  0
   -5.6000   -0.2143    0.0000 H   0  0  0  0  0  0  0  0  0  0  0  0
   -1.6001    0.0000    0.0000 C   0  0  0  0  0  0  0  0  0  0  0  0
    0.0000    0.0000    0.0000 C   0  0  0  0  0  0  0  0  0  0  0  0
    1.5999    0.0000    0.0000 C   0  0  0  0  0  0  0  0  0  0  0  0
    3.2001    0.0000    0.0000 O   0  0  0  0  0  0  0  0  0  0  0  0
    3.9999   -1.3856    0.0000 C   0  0  0  0  0  0  0  0  0  0  0  0
    3.2001   -2.7713    0.0000 C   0  0  0  0  0  0  0  0  0  0  0  0
    1.5999   -2.7713    0.0000 H   0  0  0  0  0  0  0  0  0  0  0  0
    3.9999   -4.1569    0.0000 C   0  0  0  0  0  0  0  0  0  0  0  0
    3.2001   -5.5426    0.0000 H   0  0  0  0  0  0  0  0  0  0  0  0
    5.6000   -4.1569    0.0000 C   0  0  0  0  0  0  0  0  0  0  0  0
    6.4001   -5.5426    0.0000 Cl  0  0  0  0  0  0  0  0  0  0  0  0
    6.4001   -2.7713    0.0000 C   0  0  0  0  0  0  0  0  0  0  0  0
    8.0000   -2.7713    0.0000 H   0  0  0  0  0  0  0  0  0  0  0  0
    5.6000   -1.3856    0.0000 C   0  0  0  0  0  0  0  0  0  0  0  0
    6.4001    0.0000    0.0000 C   0  0  0  0  0  0  0  0  0  0  0  0
    7.1999    1.3857    0.0000 H   0  0  0  0  0  0  0  0  0  0  0  0
    8.0000    0.0000    0.0000 H   0  0  0  0  0  0  0  0  0  0  0  0
    5.6000    1.3857    0.0000 H   0  0  0  0  0  0  0  0  0  0  0  0
    1.5999    1.6000    0.0000 H   0  0  0  0  0  0  0  0  0  0  0  0
    1.5999   -1.6000    0.0000 H   0  0  0  0  0  0  0  0  0  0  0  0
    0.0000    1.6000    0.0000 H   0  0  0  0  0  0  0  0  0  0  0  0
    0.0000   -1.6000    0.0000 H   0  0  0  0  0  0  0  0  0  0  0  0
   -1.6001    1.6000    0.0000 H   0  0  0  0  0  0  0  0  0  0  0  0
   -1.6001   -1.6000    0.0000 H   0  0  0  0  0  0  0  0  0  0  0  0
  1  2  2  0  0  0  0
  1  3  1  0  0  0  0
  3  4  1  0  0  0  0
  4  5  1  0  0  0  0
  5  6  1  0  0  0  0
  5  7  1  0  0  0  0
  5  8  1  0  0  0  0
  4  9  1  0  0  0  0
  4 10  1  0  0  0  0
  1 11  1  0  0  0  0
 11 12  1  0  0  0  0
 12 13  1  0  0  0  0
 13 14  1  0  0  0  0
 14 15  1  0  0  0  0
 15 16  4  0  0  0  0
 16 17  1  0  0  0  0
 16 18  4  0  0  0  0
 18 19  1  0  0  0  0
 18 20  4  0  0  0  0
 20 21  1  0  0  0  0
 20 22  4  0  0  0  0
 22 23  1  0  0  0  0
 22 24  4  0  0  0  0
 24 15  4  0  0  0  0
 24 25  1  0  0  0  0
 25 26  1  0  0  0  0
 25 27  1  0  0  0  0
 25 28  1  0  0  0  0
 13 29  1  0  0  0  0
 13 30  1  0  0  0  0
 12 31  1  0  0  0  0
 12 32  1  0  0  0  0
 11 33  1  0  0  0  0
 11 34  1  0  0  0  0
M  END
> <CAS>
10443-70-6

> <NAME>
MCPB-ETHYL

> <preferred_name>
MCPB ethyl

> <iupac>
ethyl 4-(4-chloro-2-methylphenoxy)butanoate

> <SMILES>
Cc1cc(Cl)ccc1OCCCC(=O)OCC

> <Canonical_QSARr>
Cc1cc(Cl)ccc1OCCCC(=O)OCC

> <InChI_Code_QSARr>
InChI=1S/C13H17ClO3/c1-3-16-13(15)5-4-8-17-12-7-6-11(14)9-10(12)2/h6-7,9H,3-5,8H2,1-2H3

> <InChI Key_QSARr>
XNKARWLGLZGMGX-UHFFFAOYSA-N

> <Salt_Solvent>
?

> <WS Temperature>
20

> <WS Reference>
TOMLIN,C (1994)

> <dsstox_substance_id>
DTXSID4058287

> <LogMolar>
-4.4095

$$$$
10463-05-5
  -INDIGO-01081615412D

 20 19  0  0  0  0  0  0  0  0999 V2000
   -0.0001   -0.0000    0.0000 P   0  0  0  0  0  0  0  0  0  0  0  0
    0.8000   -1.3857    0.0000 O   0  0  0  0  0  0  0  0  0  0  0  0
   -1.3857   -0.8000    0.0000 O   0  0  0  0  0  0  0  0  0  0  0  0
   -2.7713   -0.0000    0.0000 C   0  0  0  0  0  0  0  0  0  0  0  0
   -4.1569    0.8000    0.0000 H   0  0  0  0  0  0  0  0  0  0  0  0
   -4.1569   -0.8000    0.0000 H   0  0  0  0  0  0  0  0  0  0  0  0
   -2.7713    1.6000    0.0000 H   0  0  0  0  0  0  0  0  0  0  0  0
   -0.8000    1.3857    0.0000 O   0  0  0  0  0  0  0  0  0  0  0  0
   -0.0001    2.7713    0.0000 C   0  0  0  0  0  0  0  0  0  0  0  0
    0.8000    4.1569    0.0000 H   0  0  0  0  0  0  0  0  0  0  0  0
   -0.8000    4.1569    0.0000 H   0  0  0  0  0  0  0  0  0  0  0  0
    1.6000    2.7713    0.0000 H   0  0  0  0  0  0  0  0  0  0  0  0
    1.3857    0.8000    0.0000 O   0  0  0  0  0  0  0  0  0  0  0  0
    2.7713   -0.0000    0.0000 C   0  0  0  0  0  0  0  0  0  0  0  0
    4.1569   -0.8000    0.0000 C   0  0  0  0  0  0  0  0  0  0  0  0
    5.5426   -1.6000    0.0000 H   0  0  0  0  0  0  0  0  0  0  0  0
    5.5426   -0.0000    0.0000 H   0  0  0  0  0  0  0  0  0  0  0  0
    4.1569   -2.4000    0.0000 H   0  0  0  0  0  0  0  0  0  0  0  0
    3.5713    1.3857    0.0000 H   0  0  0  0  0  0  0  0  0  0  0  0
    1.9712   -1.3857    0.0000 H   0  0  0  0  0  0  0  0  0  0  0  0
  1  2  2  0  0  0  0
  1  3  1  0  0  0  0
  3  4  1  0  0  0  0
  4  5  1  0  0  0  0
  4  6  1  0  0  0  0
  4  7  1  0  0  0  0
  1  8  1  0  0  0  0
  8  9  1  0  0  0  0
  9 10  1  0  0  0  0
  9 11  1  0  0  0  0
  9 12  1  0  0  0  0
  1 13  1  0  0  0  0
 13 14  1  0  0  0  0
 14 15  1  0  0  0  0
 15 16  1  0  0  0  0
 15 17  1  0  0  0  0
 15 18  1  0  0  0  0
 14 19  1  0  0  0  0
 14 20  1  0  0  0  0
M  END
> <CAS>
10463-05-5

> <NAME>
Phosphoric acid, ethyl dimethyl ester

> <preferred_name>
Ethyl dimethyl phosphate

> <iupac>
Ethyl dimethyl phosphate

> <SMILES>
CCOP(=O)(OC)OC

> <Canonical_QSARr>
CCOP(=O)(OC)OC

> <InChI_Code_QSARr>
InChI=1S/C4H11O4P/c1-4-8-9(5,6-2)7-3/h4H2,1-3H3

> <InChI Key_QSARr>
JQVXMIPNQMYRPE-UHFFFAOYSA-N

> <Salt_Solvent>
?

> <WS Temperature>
25

> <WS Reference>
BEILSTEIN

> <dsstox_substance_id>
DTXSID40146618

> <LogMolar>
0.5112

$$$$
10595-95-6
  -INDIGO-01081615412D

 14 13  0  0  0  0  0  0  0  0999 V2000
    2.4000    1.3856    0.0000 C   0  0  0  0  0  0  0  0  0  0  0  0
    1.6000   -0.0000    0.0000 N   0  0  0  0  0  0  0  0  0  0  0  0
    2.4000   -1.3856    0.0000 N   0  0  0  0  0  0  0  0  0  0  0  0
    4.0000   -1.3856    0.0000 O   0  0  0  0  0  0  0  0  0  0  0  0
    0.0000   -0.0000    0.0000 C   0  0  0  0  0  0  0  0  0  0  0  0
   -1.6000   -0.0000    0.0000 C   0  0  0  0  0  0  0  0  0  0  0  0
   -3.2000   -0.0000    0.0000 H   0  0  0  0  0  0  0  0  0  0  0  0
   -2.4000   -1.3856    0.0000 H   0  0  0  0  0  0  0  0  0  0  0  0
   -2.4000    1.3856    0.0000 H   0  0  0  0  0  0  0  0  0  0  0  0
    0.0000    1.6000    0.0000 H   0  0  0  0  0  0  0  0  0  0  0  0
    0.0000   -1.6000    0.0000 H   0  0  0  0  0  0  0  0  0  0  0  0
    3.2000    2.7713    0.0000 H   0  0  0  0  0  0  0  0  0  0  0  0
    4.0000    1.3856    0.0000 H   0  0  0  0  0  0  0  0  0  0  0  0
    1.6000    2.7713    0.0000 H   0  0  0  0  0  0  0  0  0  0  0  0
  1  2  1  0  0  0  0
  2  3  1  0  0  0  0
  3  4  2  0  0  0  0
  2  5  1  0  0  0  0
  5  6  1  0  0  0  0
  6  7  1  0  0  0  0
  6  8  1  0  0  0  0
  6  9  1  0  0  0  0
  5 10  1  0  0  0  0
  5 11  1  0  0  0  0
  1 12  1  0  0  0  0
  1 13  1  0  0  0  0
  1 14  1  0  0  0  0
M  END
> <CAS>
10595-95-6

> <NAME>
N-METHYL-N-NITROSOETHAMINE

> <preferred_name>
N-Nitroso-N-methylethylamine

> <iupac>
N-methyl-N-nitrosoethanamine

> <SMILES>
CCN(C)N=O

> <Canonical_QSARr>
CCN(C)N=O

> <InChI_Code_QSARr>
InChI=1S/C3H8N2O/c1-3-5(2)4-6/h3H2,1-2H3

> <InChI Key_QSARr>
RTDCJKARQCRONF-UHFFFAOYSA-N

> <Salt_Solvent>
?

> <WS Temperature>
20

> <WS Reference>
IARC (1978)

> <dsstox_substance_id>
DTXSID6021036

> <LogMolar>
0.5321

$$$$
12771-68-5
  -INDIGO-01081615412D

 35 37  0  0  0  0  0  0  0  0999 V2000
   -1.0284   -1.2257    0.0000 C   0  0  0  0  0  0  0  0  0  0  0  0
   -2.2541   -0.1972    0.0000 O   0  0  0  0  0  0  0  0  0  0  0  0
   -2.5320    0.6784    0.0000 H   0  0  0  0  0  0  0  0  0  0  0  0
   -2.2541   -2.2542    0.0000 C   0  0  0  0  0  0  0  0  0  0  0  0
   -3.6397   -1.4542    0.0000 C   0  0  0  0  0  0  0  0  0  0  0  0
   -3.6397    0.1459    0.0000 H   0  0  0  0  0  0  0  0  0  0  0  0
   -5.0254   -2.2542    0.0000 C   0  0  0  0  0  0  0  0  0  0  0  0
   -6.4110   -1.4542    0.0000 H   0  0  0  0  0  0  0  0  0  0  0  0
   -5.0254   -3.8541    0.0000 C   0  0  0  0  0  0  0  0  0  0  0  0
   -6.4110   -4.6542    0.0000 O   0  0  0  0  0  0  0  0  0  0  0  0
   -7.7967   -3.8541    0.0000 C   0  0  0  0  0  0  0  0  0  0  0  0
   -9.1823   -4.6542    0.0000 H   0  0  0  0  0  0  0  0  0  0  0  0
   -9.1823   -3.0541    0.0000 H   0  0  0  0  0  0  0  0  0  0  0  0
   -7.7967   -5.4541    0.0000 H   0  0  0  0  0  0  0  0  0  0  0  0
   -3.6397   -4.6542    0.0000 C   0  0  0  0  0  0  0  0  0  0  0  0
   -3.6397   -6.2541    0.0000 H   0  0  0  0  0  0  0  0  0  0  0  0
   -2.2541   -3.8541    0.0000 C   0  0  0  0  0  0  0  0  0  0  0  0
   -1.5841   -4.3770    0.0000 H   0  0  0  0  0  0  0  0  0  0  0  0
    0.1972   -2.2542    0.0000 C   0  0  0  0  0  0  0  0  0  0  0  0
    1.7006   -1.7069    0.0000 C   0  0  0  0  0  0  0  0  0  0  0  0
    2.5007   -0.3213    0.0000 H   0  0  0  0  0  0  0  0  0  0  0  0
    2.9265   -2.7354    0.0000 N   0  0  0  1  0  0  0  0  0  0  0  0
    2.6486   -4.3111    0.0000 C   0  0  0  0  0  0  0  0  0  0  0  0
    3.8742   -5.3396    0.0000 H   0  0  0  0  0  0  0  0  0  0  0  0
    1.1450   -4.8582    0.0000 N   0  0  0  1  0  0  0  0  0  0  0  0
   -0.0807   -3.8299    0.0000 C   0  0  0  0  0  0  0  0  0  0  0  0
   -0.6678   -4.4443    0.0000 H   0  0  0  0  0  0  0  0  0  0  0  0
   -0.0000    0.0000    0.0000 C   0  0  0  0  0  0  0  0  0  0  0  0
    0.5473    1.5036    0.0000 C   0  0  0  0  0  0  0  0  0  0  0  0
    2.1230    1.2257    0.0000 H   0  0  0  0  0  0  0  0  0  0  0  0
    0.5473    3.1035    0.0000 H   0  0  0  0  0  0  0  0  0  0  0  0
   -1.0284    1.2257    0.0000 C   0  0  0  0  0  0  0  0  0  0  0  0
   -1.5757    2.7291    0.0000 H   0  0  0  0  0  0  0  0  0  0  0  0
   -1.9353    1.3719    0.0000 H   0  0  0  0  0  0  0  0  0  0  0  0
    1.3856   -0.8000    0.0000 H   0  0  0  0  0  0  0  0  0  0  0  0
  1  2  1  0  0  0  0
  2  3  1  0  0  0  0
  1  4  1  0  0  0  0
  4  5  4  0  0  0  0
  5  6  1  0  0  0  0
  5  7  4  0  0  0  0
  7  8  1  0  0  0  0
  7  9  4  0  0  0  0
  9 10  1  0  0  0  0
 10 11  1  0  0  0  0
 11 12  1  0  0  0  0
 11 13  1  0  0  0  0
 11 14  1  0  0  0  0
  9 15  4  0  0  0  0
 15 16  1  0  0  0  0
 15 17  4  0  0  0  0
 17  4  4  0  0  0  0
 17 18  1  0  0  0  0
  1 19  1  0  0  0  0
 19 20  4  0  0  0  0
 20 21  1  0  0  0  0
 20 22  4  0  0  0  0
 22 23  4  0  0  0  0
 23 24  1  0  0  0  0
 23 25  4  0  0  0  0
 25 26  4  0  0  0  0
 26 19  4  0  0  0  0
 26 27  1  0  0  0  0
  1 28  1  0  0  0  0
 28 29  1  0  0  0  0
 29 30  1  0  0  0  0
 29 31  1  0  0  0  0
 29 32  1  0  0  0  0
 32 28  1  0  0  0  0
 32 33  1  0  0  0  0
 32 34  1  0  0  0  0
 28 35  1  0  0  0  0
M  END
> <CAS>
12771-68-5

> <NAME>
ANCYMIDOL

> <preferred_name>
Ancymidol

> <iupac>
cyclopropyl(4-methoxyphenyl)pyrimidin-5-ylmethanol

> <SMILES>
COc1ccc(cc1)C(O)(C1CC1)c1c[n]c[n]c1

> <Canonical_QSARr>
COc1ccc(cc1)C(O)(C1CC1)c1c[n]c[n]c1

> <InChI_Code_QSARr>
InChI=1S/C15H16N2O2/c1-19-14-6-4-12(5-7-14)15(18,11-2-3-11)13-8-16-10-17-9-13/h4-11,18H,2-3H2,1H3

> <InChI Key_QSARr>
HUTDUHSNJYTCAR-UHFFFAOYSA-N

> <Salt_Solvent>
?

> <WS Temperature>
25

> <WS Reference>
YALKOWSKY,SH & DANNENFELSER,RM (1992)

> <dsstox_substance_id>
DTXSID2034338

> <LogMolar>
-2.5959

$$$$
13067-93-1
  -INDIGO-01081615412D

 34 35  0  0  0  0  0  0  0  0999 V2000
   -0.0001    0.0000    0.0000 P   0  0  0  0  0  0  0  0  0  0  0  0
    1.3857    0.8000    0.0000 O   0  0  0  0  0  0  0  0  0  0  0  0
    1.3857    2.3999    0.0000 C   0  0  0  0  0  0  0  0  0  0  0  0
    1.3857    4.0000    0.0000 C   0  0  0  0  0  0  0  0  0  0  0  0
    1.3857    5.6000    0.0000 H   0  0  0  0  0  0  0  0  0  0  0  0
    2.7712    4.8000    0.0000 H   0  0  0  0  0  0  0  0  0  0  0  0
   -0.0001    4.8000    0.0000 H   0  0  0  0  0  0  0  0  0  0  0  0
    2.9857    2.3999    0.0000 H   0  0  0  0  0  0  0  0  0  0  0  0
   -0.2144    2.3999    0.0000 H   0  0  0  0  0  0  0  0  0  0  0  0
   -1.3857   -0.8000    0.0000 C   0  0  0  0  0  0  0  0  0  0  0  0
   -2.7712    0.0000    0.0000 C   0  0  0  0  0  0  0  0  0  0  0  0
   -2.7712    1.6000    0.0000 H   0  0  0  0  0  0  0  0  0  0  0  0
   -4.1570   -0.8000    0.0000 C   0  0  0  0  0  0  0  0  0  0  0  0
   -5.5426    0.0000    0.0000 H   0  0  0  0  0  0  0  0  0  0  0  0
   -4.1570   -2.4001    0.0000 C   0  0  0  0  0  0  0  0  0  0  0  0
   -5.5426   -3.2000    0.0000 H   0  0  0  0  0  0  0  0  0  0  0  0
   -2.7712   -3.2000    0.0000 C   0  0  0  0  0  0  0  0  0  0  0  0
   -2.7712   -4.8000    0.0000 H   0  0  0  0  0  0  0  0  0  0  0  0
   -1.3857   -2.4001    0.0000 C   0  0  0  0  0  0  0  0  0  0  0  0
   -0.0001   -3.2000    0.0000 H   0  0  0  0  0  0  0  0  0  0  0  0
   -0.8000    1.3856    0.0000 S   0  0  0  0  0  0  0  0  0  0  0  0
    0.8000   -1.3857    0.0000 O   0  0  0  0  0  0  0  0  0  0  0  0
    2.4001   -1.3857    0.0000 C   0  0  0  0  0  0  0  0  0  0  0  0
    3.2000   -2.7713    0.0000 C   0  0  0  0  0  0  0  0  0  0  0  0
    2.4001   -4.1570    0.0000 H   0  0  0  0  0  0  0  0  0  0  0  0
    4.8000   -2.7713    0.0000 C   0  0  0  0  0  0  0  0  0  0  0  0
    5.5999   -4.1570    0.0000 H   0  0  0  0  0  0  0  0  0  0  0  0
    5.5999   -1.3857    0.0000 C   0  0  0  0  0  0  0  0  0  0  0  0
    7.2000   -1.3857    0.0000 C   0  0  0  0  0  0  0  0  0  0  0  0
    8.8000   -1.3857    0.0000 N   0  0  0  0  0  0  0  0  0  0  0  0
    4.8000    0.0000    0.0000 C   0  0  0  0  0  0  0  0  0  0  0  0
    5.5999    1.3856    0.0000 H   0  0  0  0  0  0  0  0  0  0  0  0
    3.2000    0.0000    0.0000 C   0  0  0  0  0  0  0  0  0  0  0  0
    2.4001    1.3856    0.0000 H   0  0  0  0  0  0  0  0  0  0  0  0
  1  2  1  0  0  0  0
  2  3  1  0  0  0  0
  3  4  1  0  0  0  0
  4  5  1  0  0  0  0
  4  6  1  0  0  0  0
  4  7  1  0  0  0  0
  3  8  1  0  0  0  0
  3  9  1  0  0  0  0
  1 10  1  0  0  0  0
 10 11  4  0  0  0  0
 11 12  1  0  0  0  0
 11 13  4  0  0  0  0
 13 14  1  0  0  0  0
 13 15  4  0  0  0  0
 15 16  1  0  0  0  0
 15 17  4  0  0  0  0
 17 18  1  0  0  0  0
 17 19  4  0  0  0  0
 19 10  4  0  0  0  0
 19 20  1  0  0  0  0
  1 21  2  0  0  0  0
  1 22  1  0  0  0  0
 22 23  1  0  0  0  0
 23 24  4  0  0  0  0
 24 25  1  0  0  0  0
 24 26  4  0  0  0  0
 26 27  1  0  0  0  0
 26 28  4  0  0  0  0
 28 29  1  0  0  0  0
 29 30  3  0  0  0  0
 28 31  4  0  0  0  0
 31 32  1  0  0  0  0
 31 33  4  0  0  0  0
 33 23  4  0  0  0  0
 33 34  1  0  0  0  0
M  END
> <CAS>
13067-93-1

> <NAME>
CYANOFENPHOS

> <preferred_name>
Cyanofenphos

> <iupac>
O-(4-cyanophenyl) O-ethyl phenylphosphonothioate

> <SMILES>
CCOP(=S)(Oc1ccc(cc1)C#N)c1ccccc1

> <Canonical_QSARr>
CCOP(=S)(Oc1ccc(cc1)C#N)c1ccccc1

> <InChI_Code_QSARr>
InChI=1S/C15H14NO2PS/c1-2-17-19(20,15-6-4-3-5-7-15)18-14-10-8-13(12-16)9-11-14/h3-11H,2H2,1H3

> <InChI Key_QSARr>
LRNJHZNPJSPMGK-UHFFFAOYSA-N

> <Salt_Solvent>
?

> <WS Temperature>
30

> <WS Reference>
YALKOWSKY,SH & DANNENFELSER,RM (1992)

> <dsstox_substance_id>
DTXSID5041805

> <LogMolar>
-5.7037

$$$$
13261-53-5
  -INDIGO-01081615412D

 30 31  0  0  0  0  0  0  0  0999 V2000
   -2.3999    1.3856    0.0000 N   0  0  0  0  0  0  0  0  0  0  0  0
   -4.0001    1.3856    0.0000 C   0  0  0  0  0  0  0  0  0  0  0  0
   -4.5472    2.8891    0.0000 N   0  0  0  0  0  0  0  0  0  0  0  0
   -6.1228    3.1670    0.0000 H   0  0  0  0  0  0  0  0  0  0  0  0
   -3.5188    4.1148    0.0000 H   0  0  0  0  0  0  0  0  0  0  0  0
   -4.8000   -0.0000    0.0000 N   0  0  0  0  0  0  0  0  0  0  0  0
   -6.3035   -0.5472    0.0000 C   0  0  0  0  0  0  0  0  0  0  0  0
   -6.5813   -2.1229    0.0000 N   0  0  0  0  0  0  0  0  0  0  0  0
   -8.0848   -2.6702    0.0000 H   0  0  0  0  0  0  0  0  0  0  0  0
   -5.3556   -3.1513    0.0000 H   0  0  0  0  0  0  0  0  0  0  0  0
   -7.5292    0.4812    0.0000 N   0  0  0  0  0  0  0  0  0  0  0  0
   -7.2514    2.0570    0.0000 H   0  0  0  0  0  0  0  0  0  0  0  0
   -9.0327   -0.0660    0.0000 H   0  0  0  0  0  0  0  0  0  0  0  0
   -1.6000   -0.0000    0.0000 C   0  0  0  0  0  0  0  0  0  0  0  0
   -2.3999   -1.3857    0.0000 C   0  0  0  0  0  0  0  0  0  0  0  0
   -4.0001   -1.3857    0.0000 H   0  0  0  0  0  0  0  0  0  0  0  0
   -1.6000   -2.7713    0.0000 C   0  0  0  0  0  0  0  0  0  0  0  0
   -2.3999   -4.1569    0.0000 H   0  0  0  0  0  0  0  0  0  0  0  0
   -0.0000   -2.7713    0.0000 C   0  0  0  0  0  0  0  0  0  0  0  0
    0.7999   -4.1569    0.0000 H   0  0  0  0  0  0  0  0  0  0  0  0
    0.7999   -1.3857    0.0000 C   0  0  0  0  0  0  0  0  0  0  0  0
    2.4001   -1.3857    0.0000 C   0  0  0  0  0  0  0  0  0  0  0  0
    3.2001   -0.0000    0.0000 C   0  0  0  0  0  0  0  0  0  0  0  0
    2.4001    1.3856    0.0000 C   0  0  0  0  0  0  0  0  0  0  0  0
    0.7999    1.3856    0.0000 C   0  0  0  0  0  0  0  0  0  0  0  0
   -0.0000    2.7712    0.0000 H   0  0  0  0  0  0  0  0  0  0  0  0
   -0.0000   -0.0000    0.0000 C   0  0  0  0  0  0  0  0  0  0  0  0
    3.2001    2.7712    0.0000 H   0  0  0  0  0  0  0  0  0  0  0  0
    4.8000   -0.0000    0.0000 H   0  0  0  0  0  0  0  0  0  0  0  0
    3.2001   -2.7713    0.0000 H   0  0  0  0  0  0  0  0  0  0  0  0
  1  2  2  0  0  0  0
  2  3  1  0  0  0  0
  3  4  1  0  0  0  0
  3  5  1  0  0  0  0
  2  6  1  0  0  0  0
  6  7  2  0  0  0  0
  7  8  1  0  0  0  0
  8  9  1  0  0  0  0
  8 10  1  0  0  0  0
  7 11  1  0  0  0  0
 11 12  1  0  0  0  0
 11 13  1  0  0  0  0
  1 14  1  0  0  0  0
 14 15  4  0  0  0  0
 15 16  1  0  0  0  0
 15 17  4  0  0  0  0
 17 18  1  0  0  0  0
 17 19  4  0  0  0  0
 19 20  1  0  0  0  0
 19 21  4  0  0  0  0
 21 22  4  0  0  0  0
 22 23  4  0  0  0  0
 23 24  4  0  0  0  0
 24 25  4  0  0  0  0
 25 26  1  0  0  0  0
 25 27  4  0  0  0  0
 27 14  4  0  0  0  0
 27 21  4  0  0  0  0
 24 28  1  0  0  0  0
 23 29  1  0  0  0  0
 22 30  1  0  0  0  0
M  END
> <CAS>
13261-53-5

> <NAME>
Imidodicarbonimidic diamide, N-1-naphthalenyl-

> <preferred_name>
1-(diaminomethylidene)-2-naphthalen-1-ylguanidine

> <iupac>
C12H13N5

> <SMILES>
NC(N)=N/C(/N)=N/c1cccc2ccccc21

> <Canonical_QSARr>
NC(N)=NC(N)=Nc1cccc2ccccc21

> <InChI_Code_QSARr>
InChI=1S/C12H13N5/c13-11(14)17-12(15)16-10-7-3-5-8-4-1-2-6-9(8)10/h1-7H,(H6,13,14,15,16,17)

> <InChI Key_QSARr>
UUBZPMKBMHXGNE-UHFFFAOYSA-N

> <Salt_Solvent>
?

> <WS Temperature>
20

> <WS Reference>
BEILSTEIN

> <dsstox_substance_id>
DTXSID90397097

> <LogMolar>
-2.3151

$$$$
13330-93-3
  -INDIGO-01081615412D

 25 25  0  0  0  0  0  0  0  0999 V2000
    1.5756   -0.2779    0.0000 S   0  0  0  0  0  0  0  0  0  0  0  0
    2.1229   -1.7813    0.0000 C   0  0  0  0  0  0  0  0  0  0  0  0
    2.6701   -3.2849    0.0000 C   0  0  0  0  0  0  0  0  0  0  0  0
    1.6418   -4.5106    0.0000 O   0  0  0  0  0  0  0  0  0  0  0  0
    4.2458   -3.5626    0.0000 O   0  0  0  0  0  0  0  0  0  0  0  0
    4.7931   -5.0662    0.0000 H   0  0  0  0  0  0  0  0  0  0  0  0
    3.6264   -1.2341    0.0000 H   0  0  0  0  0  0  0  0  0  0  0  0
    0.6194   -2.3285    0.0000 H   0  0  0  0  0  0  0  0  0  0  0  0
    0.0001    0.0000    0.0000 C   0  0  0  0  0  0  0  0  0  0  0  0
    0.8000    1.3857    0.0000 C   0  0  0  0  0  0  0  0  0  0  0  0
    0.0001    2.7712    0.0000 O   0  0  0  0  0  0  0  0  0  0  0  0
    2.4000    1.3857    0.0000 O   0  0  0  0  0  0  0  0  0  0  0  0
    3.2000    2.7712    0.0000 H   0  0  0  0  0  0  0  0  0  0  0  0
   -1.5757    0.2779    0.0000 C   0  0  0  0  0  0  0  0  0  0  0  0
   -2.3757    1.6634    0.0000 C   0  0  0  0  0  0  0  0  0  0  0  0
   -1.5757    3.0491    0.0000 H   0  0  0  0  0  0  0  0  0  0  0  0
   -3.9758    1.6634    0.0000 C   0  0  0  0  0  0  0  0  0  0  0  0
   -4.7757    3.0491    0.0000 H   0  0  0  0  0  0  0  0  0  0  0  0
   -4.7757    0.2779    0.0000 C   0  0  0  0  0  0  0  0  0  0  0  0
   -6.3757    0.2779    0.0000 H   0  0  0  0  0  0  0  0  0  0  0  0
   -3.9758   -1.1078    0.0000 C   0  0  0  0  0  0  0  0  0  0  0  0
   -4.7757   -2.4935    0.0000 H   0  0  0  0  0  0  0  0  0  0  0  0
   -2.3757   -1.1078    0.0000 C   0  0  0  0  0  0  0  0  0  0  0  0
   -1.5757   -2.4935    0.0000 H   0  0  0  0  0  0  0  0  0  0  0  0
   -0.2779   -1.5758    0.0000 H   0  0  0  0  0  0  0  0  0  0  0  0
  1  2  1  0  0  0  0
  2  3  1  0  0  0  0
  3  4  2  0  0  0  0
  3  5  1  0  0  0  0
  5  6  1  0  0  0  0
  2  7  1  0  0  0  0
  2  8  1  0  0  0  0
  1  9  1  0  0  0  0
  9 10  1  0  0  0  0
 10 11  2  0  0  0  0
 10 12  1  0  0  0  0
 12 13  1  0  0  0  0
  9 14  1  0  0  0  0
 14 15  4  0  0  0  0
 15 16  1  0  0  0  0
 15 17  4  0  0  0  0
 17 18  1  0  0  0  0
 17 19  4  0  0  0  0
 19 20  1  0  0  0  0
 19 21  4  0  0  0  0
 21 22  1  0  0  0  0
 21 23  4  0  0  0  0
 23 14  4  0  0  0  0
 23 24  1  0  0  0  0
  9 25  1  0  0  0  0
M  END
> <CAS>
13330-93-3

> <NAME>
Benzeneacetic acid, .alpha.-[(carboxymethyl)thio

> <preferred_name>
[(carboxymethyl)sulfanyl](phenyl)acetic acid

> <iupac>
C10H10O4S

> <SMILES>
OC(=O)C(SCC(O)=O)c1ccccc1

> <Canonical_QSARr>
OC(=O)C(SCC(O)=O)c1ccccc1

> <InChI_Code_QSARr>
InChI=1S/C10H10O4S/c11-8(12)6-15-9(10(13)14)7-4-2-1-3-5-7/h1-5,9H,6H2,(H,11,12)(H,13,14)

> <InChI Key_QSARr>
AIUNWFBYULOSRS-UHFFFAOYSA-N

> <Salt_Solvent>
?

> <WS Temperature>
25

> <WS Reference>
BEILSTEIN

> <dsstox_substance_id>
DTXSID40296581

> <LogMolar>
-1.1559

$$$$
13414-55-6
  -INDIGO-01081615412D

 25 26  0  0  0  0  0  0  0  0999 V2000
   -2.4622    4.0000    0.0000 O   0  0  0  0  0  0  0  0  0  0  0  0
   -3.8478    3.2000    0.0000 N   0  0  0  0  0  0  0  0  0  0  0  0
   -3.8478    1.6000    0.0000 C   0  0  0  0  0  0  0  0  0  0  0  0
   -5.2334    0.8000    0.0000 C   0  0  0  0  0  0  0  0  0  0  0  0
   -6.6191    1.6000    0.0000 H   0  0  0  0  0  0  0  0  0  0  0  0
   -5.2334   -0.8000    0.0000 C   0  0  0  0  0  0  0  0  0  0  0  0
   -6.6191   -1.6000    0.0000 H   0  0  0  0  0  0  0  0  0  0  0  0
   -3.8478   -1.6000    0.0000 C   0  0  0  0  0  0  0  0  0  0  0  0
   -3.8478   -3.2000    0.0000 H   0  0  0  0  0  0  0  0  0  0  0  0
   -2.4622   -0.8000    0.0000 C   0  0  0  0  0  0  0  0  0  0  0  0
   -2.4622    0.8000    0.0000 C   0  0  0  0  0  0  0  0  0  0  0  0
   -0.9405    1.2945    0.0000 O   0  0  0  0  0  0  0  0  0  0  0  0
   -0.0000    0.0000    0.0000 C   0  0  0  0  0  0  0  0  0  0  0  0
    1.1890   -1.0706    0.0000 C   0  0  0  0  0  0  0  0  0  0  0  0
    2.3780   -2.1412    0.0000 H   0  0  0  0  0  0  0  0  0  0  0  0
    2.7107   -0.5762    0.0000 H   0  0  0  0  0  0  0  0  0  0  0  0
    1.1332   -2.6697    0.0000 H   0  0  0  0  0  0  0  0  0  0  0  0
    1.1890    1.0706    0.0000 C   0  0  0  0  0  0  0  0  0  0  0  0
    2.3780    2.1412    0.0000 H   0  0  0  0  0  0  0  0  0  0  0  0
    0.8564    2.6357    0.0000 H   0  0  0  0  0  0  0  0  0  0  0  0
    2.7107    0.5762    0.0000 H   0  0  0  0  0  0  0  0  0  0  0  0
   -0.9405   -1.2944    0.0000 C   0  0  0  0  0  0  0  0  0  0  0  0
   -1.5912   -2.7561    0.0000 H   0  0  0  0  0  0  0  0  0  0  0  0
   -0.1404   -2.6801    0.0000 H   0  0  0  0  0  0  0  0  0  0  0  0
   -5.2334    4.0000    0.0000 O   0  0  0  0  0  0  0  0  0  0  0  0
  1  2  1  0  0  0  0
  2  3  1  0  0  0  0
  3  4  4  0  0  0  0
  4  5  1  0  0  0  0
  4  6  4  0  0  0  0
  6  7  1  0  0  0  0
  6  8  4  0  0  0  0
  8  9  1  0  0  0  0
  8 10  4  0  0  0  0
 10 11  4  0  0  0  0
 11  3  4  0  0  0  0
 11 12  1  0  0  0  0
 12 13  1  0  0  0  0
 13 14  1  0  0  0  0
 14 15  1  0  0  0  0
 14 16  1  0  0  0  0
 14 17  1  0  0  0  0
 13 18  1  0  0  0  0
 18 19  1  0  0  0  0
 18 20  1  0  0  0  0
 18 21  1  0  0  0  0
 13 22  1  0  0  0  0
 22 10  1  0  0  0  0
 22 23  1  0  0  0  0
 22 24  1  0  0  0  0
  2 25  2  0  0  0  0
M  CHG  2   1  -1   2   1
M  END
> <CAS>
13414-55-6

> <NAME>
7-NITRO-2,2-DIMETHYL-2,3-DIHYDROBENZOFURAN

> <preferred_name>
Benzofuran, 2,3-dihydro-2,2-dimethyl-7-nitro-

> <iupac>
2,2-dimethyl-7-nitro-3H-1-benzofuran

> <SMILES>
CC1(C)Cc2cccc(c2O1)[N+]([O-])=O

> <Canonical_QSARr>
CC1(C)Cc2cccc(c2O1)[N+]([O-])=O

> <InChI_Code_QSARr>
InChI=1S/C10H11NO3/c1-10(2)6-7-4-3-5-8(11(12)13)9(7)14-10/h3-5H,6H2,1-2H3

> <InChI Key_QSARr>
ZQZNLPNVEXRNNG-UHFFFAOYSA-N

> <Salt_Solvent>
?

> <WS Temperature>
25

> <WS Reference>
FEDERAL REGISTER (1985)

> <dsstox_substance_id>
DTXSID0065438

> <LogMolar>
-3.2068

$$$$
13476-55-6
  -INDIGO-01081615412D

 35 35  0  0  0  0  0  0  0  0999 V2000
   -5.5999    1.3857    0.0000 C   0  0  0  0  0  0  0  0  0  0  0  0
   -4.8001    0.0000    0.0000 O   0  0  0  0  0  0  0  0  0  0  0  0
   -3.1999    0.0000    0.0000 C   0  0  0  0  0  0  0  0  0  0  0  0
   -1.5999    0.0000    0.0000 C   0  0  0  0  0  0  0  0  0  0  0  0
   -0.0000    0.0000    0.0000 C   0  0  0  0  0  0  0  0  0  0  0  0
    1.5999    0.0000    0.0000 C   0  0  0  0  0  0  0  0  0  0  0  0
    3.2001    0.0000    0.0000 C   0  0  0  0  0  0  0  0  0  0  0  0
    4.8001    0.0000    0.0000 C   0  0  0  0  0  0  0  0  0  0  0  0
    6.4000    0.0000    0.0000 H   0  0  0  0  0  0  0  0  0  0  0  0
    5.5999   -1.3857    0.0000 H   0  0  0  0  0  0  0  0  0  0  0  0
    5.5999    1.3857    0.0000 H   0  0  0  0  0  0  0  0  0  0  0  0
    3.2001   -1.6000    0.0000 H   0  0  0  0  0  0  0  0  0  0  0  0
    3.2001    1.6000    0.0000 H   0  0  0  0  0  0  0  0  0  0  0  0
    1.5999   -1.6000    0.0000 H   0  0  0  0  0  0  0  0  0  0  0  0
    1.5999    1.6000    0.0000 H   0  0  0  0  0  0  0  0  0  0  0  0
   -0.0000   -1.6000    0.0000 H   0  0  0  0  0  0  0  0  0  0  0  0
   -0.0000    1.6000    0.0000 H   0  0  0  0  0  0  0  0  0  0  0  0
   -1.5999   -1.6000    0.0000 H   0  0  0  0  0  0  0  0  0  0  0  0
   -1.5999    1.6000    0.0000 H   0  0  0  0  0  0  0  0  0  0  0  0
   -3.1999   -1.6000    0.0000 H   0  0  0  0  0  0  0  0  0  0  0  0
   -3.1999    1.6000    0.0000 H   0  0  0  0  0  0  0  0  0  0  0  0
   -7.2001    1.3857    0.0000 C   0  0  0  0  0  0  0  0  0  0  0  0
   -7.9999    2.7713    0.0000 C   0  0  0  0  0  0  0  0  0  0  0  0
   -7.2001    4.1569    0.0000 H   0  0  0  0  0  0  0  0  0  0  0  0
   -9.5999    2.7713    0.0000 C   0  0  0  0  0  0  0  0  0  0  0  0
  -10.4000    4.1569    0.0000 H   0  0  0  0  0  0  0  0  0  0  0  0
  -10.4000    1.3857    0.0000 C   0  0  0  0  0  0  0  0  0  0  0  0
  -11.9999    1.3857    0.0000 N   0  0  0  0  0  0  0  0  0  0  0  0
  -12.8000    2.7713    0.0000 H   0  0  0  0  0  0  0  0  0  0  0  0
  -12.8000    0.0000    0.0000 H   0  0  0  0  0  0  0  0  0  0  0  0
   -9.5999    0.0000    0.0000 C   0  0  0  0  0  0  0  0  0  0  0  0
  -10.4000   -1.3857    0.0000 H   0  0  0  0  0  0  0  0  0  0  0  0
   -7.9999    0.0000    0.0000 C   0  0  0  0  0  0  0  0  0  0  0  0
   -7.2001   -1.3857    0.0000 H   0  0  0  0  0  0  0  0  0  0  0  0
   -4.8001    2.7713    0.0000 O   0  0  0  0  0  0  0  0  0  0  0  0
  1  2  1  0  0  0  0
  2  3  1  0  0  0  0
  3  4  1  0  0  0  0
  4  5  1  0  0  0  0
  5  6  1  0  0  0  0
  6  7  1  0  0  0  0
  7  8  1  0  0  0  0
  8  9  1  0  0  0  0
  8 10  1  0  0  0  0
  8 11  1  0  0  0  0
  7 12  1  0  0  0  0
  7 13  1  0  0  0  0
  6 14  1  0  0  0  0
  6 15  1  0  0  0  0
  5 16  1  0  0  0  0
  5 17  1  0  0  0  0
  4 18  1  0  0  0  0
  4 19  1  0  0  0  0
  3 20  1  0  0  0  0
  3 21  1  0  0  0  0
  1 22  1  0  0  0  0
 22 23  4  0  0  0  0
 23 24  1  0  0  0  0
 23 25  4  0  0  0  0
 25 26  1  0  0  0  0
 25 27  4  0  0  0  0
 27 28  1  0  0  0  0
 28 29  1  0  0  0  0
 28 30  1  0  0  0  0
 27 31  4  0  0  0  0
 31 32  1  0  0  0  0
 31 33  4  0  0  0  0
 33 22  4  0  0  0  0
 33 34  1  0  0  0  0
  1 35  2  0  0  0  0
M  END
> <CAS>
13476-55-6

> <NAME>
BENZOIC ACID, 4-AMINO-, HEXYL ESTER

> <preferred_name>


> <iupac>


> <SMILES>
CCCCCCOC(=O)c1ccc(N)cc1

> <Canonical_QSARr>
CCCCCCOC(=O)c1ccc(N)cc1

> <InChI_Code_QSARr>
InChI=1S/C13H19NO2/c1-2-3-4-5-10-16-13(15)11-6-8-12(14)9-7-11/h6-9H,2-5,10,14H2,1H3

> <InChI Key_QSARr>
UWIGKXXCHKVGHW-UHFFFAOYSA-N

> <Salt_Solvent>
?

> <WS Temperature>
25

> <WS Reference>
EPA

> <dsstox_substance_id>


> <LogMolar>
-3.954

$$$$
13560-89-9
  -INDIGO-01081615412D

 42 46  0  0  0  0  0  0  0  0999 V2000
   -0.0001    0.0001    0.0000 C   0  0  0  0  0  0  0  0  0  0  0  0
    1.5217    0.4944    0.0000 C   0  0  0  0  0  0  0  0  0  0  0  0
    1.5217    2.0944    0.0000 Cl  0  0  0  0  0  0  0  0  0  0  0  0
    2.4621   -0.8001    0.0000 C   0  0  0  0  0  0  0  0  0  0  0  0
    3.9456   -1.3994    0.0000 Cl  0  0  0  0  0  0  0  0  0  0  0  0
    3.9456   -0.2006    0.0000 Cl  0  0  0  0  0  0  0  0  0  0  0  0
    1.5217   -2.0944    0.0000 C   0  0  0  0  0  0  0  0  0  0  0  0
    1.5217   -3.6944    0.0000 Cl  0  0  0  0  0  0  0  0  0  0  0  0
    3.0433   -1.6000    0.0000 C   0  0  0  0  0  0  0  0  0  0  0  0
    4.3378   -2.5405    0.0000 Cl  0  0  0  0  0  0  0  0  0  0  0  0
    3.0433   -0.0001    0.0000 C   0  0  0  0  0  0  0  0  0  0  0  0
    4.3378    0.9404    0.0000 Cl  0  0  0  0  0  0  0  0  0  0  0  0
   -0.0001   -1.6001    0.0000 C   0  0  0  0  0  0  0  0  0  0  0  0
    0.3736   -3.1558    0.0000 H   0  0  0  0  0  0  0  0  0  0  0  0
   -1.1314   -2.7314    0.0000 C   0  0  0  0  0  0  0  0  0  0  0  0
   -1.5456   -4.2769    0.0000 H   0  0  0  0  0  0  0  0  0  0  0  0
   -0.1030   -3.9570    0.0000 H   0  0  0  0  0  0  0  0  0  0  0  0
   -2.7314   -2.7314    0.0000 C   0  0  0  0  0  0  0  0  0  0  0  0
   -3.7597   -3.9570    0.0000 H   0  0  0  0  0  0  0  0  0  0  0  0
   -2.5919   -4.3253    0.0000 H   0  0  0  0  0  0  0  0  0  0  0  0
   -3.8627   -1.6000    0.0000 C   0  0  0  0  0  0  0  0  0  0  0  0
   -5.3845   -2.0944    0.0000 C   0  0  0  0  0  0  0  0  0  0  0  0
   -5.3845   -3.6944    0.0000 Cl  0  0  0  0  0  0  0  0  0  0  0  0
   -6.3248   -0.8001    0.0000 C   0  0  0  0  0  0  0  0  0  0  0  0
   -7.8083   -0.2006    0.0000 Cl  0  0  0  0  0  0  0  0  0  0  0  0
   -7.8083   -1.3994    0.0000 Cl  0  0  0  0  0  0  0  0  0  0  0  0
   -5.3845    0.4944    0.0000 C   0  0  0  0  0  0  0  0  0  0  0  0
   -5.3845    2.0944    0.0000 Cl  0  0  0  0  0  0  0  0  0  0  0  0
   -3.8627   -0.0001    0.0000 C   0  0  0  0  0  0  0  0  0  0  0  0
   -4.2363    1.5558    0.0000 H   0  0  0  0  0  0  0  0  0  0  0  0
   -2.7314    1.1314    0.0000 C   0  0  0  0  0  0  0  0  0  0  0  0
   -2.3172    2.6769    0.0000 H   0  0  0  0  0  0  0  0  0  0  0  0
   -3.5313    2.5170    0.0000 H   0  0  0  0  0  0  0  0  0  0  0  0
   -1.1314    1.1314    0.0000 C   0  0  0  0  0  0  0  0  0  0  0  0
   -0.1030    2.3570    0.0000 H   0  0  0  0  0  0  0  0  0  0  0  0
   -1.2708    2.7253    0.0000 H   0  0  0  0  0  0  0  0  0  0  0  0
   -6.9061   -0.0001    0.0000 C   0  0  0  0  0  0  0  0  0  0  0  0
   -8.2005    0.9404    0.0000 Cl  0  0  0  0  0  0  0  0  0  0  0  0
   -6.9061   -1.6001    0.0000 C   0  0  0  0  0  0  0  0  0  0  0  0
   -8.2005   -2.5405    0.0000 Cl  0  0  0  0  0  0  0  0  0  0  0  0
   -4.2363   -3.1558    0.0000 H   0  0  0  0  0  0  0  0  0  0  0  0
    0.3736    1.5558    0.0000 H   0  0  0  0  0  0  0  0  0  0  0  0
  1  2  1  0  0  0  0
  2  3  1  0  0  0  0
  2  4  1  0  0  0  0
  4  5  1  0  0  0  0
  4  6  1  0  0  0  0
  4  7  1  0  0  0  0
  7  8  1  0  0  0  0
  7  9  1  0  0  0  0
  9 10  1  0  0  0  0
  9 11  2  0  0  0  0
 11  2  1  0  0  0  0
 11 12  1  0  0  0  0
  7 13  1  0  0  0  0
 13  1  1  0  0  0  0
 13 14  1  0  0  0  0
 13 15  1  0  0  0  0
 15 16  1  0  0  0  0
 15 17  1  0  0  0  0
 15 18  1  0  0  0  0
 18 19  1  0  0  0  0
 18 20  1  0  0  0  0
 18 21  1  0  0  0  0
 21 22  1  0  0  0  0
 22 23  1  0  0  0  0
 22 24  1  0  0  0  0
 24 25  1  0  0  0  0
 24 26  1  0  0  0  0
 24 27  1  0  0  0  0
 27 28  1  0  0  0  0
 27 29  1  0  0  0  0
 29 21  1  0  0  0  0
 29 30  1  0  0  0  0
 29 31  1  0  0  0  0
 31 32  1  0  0  0  0
 31 33  1  0  0  0  0
 31 34  1  0  0  0  0
 34  1  1  0  0  0  0
 34 35  1  0  0  0  0
 34 36  1  0  0  0  0
 27 37  1  0  0  0  0
 37 38  1  0  0  0  0
 37 39  2  0  0  0  0
 39 22  1  0  0  0  0
 39 40  1  0  0  0  0
 21 41  1  0  0  0  0
  1 42  1  0  0  0  0
M  END
> <CAS>
13560-89-9

> <NAME>
Dechlorane Plus

> <preferred_name>
1,4:7,10-Dimethanodibenzo[a,e]cyclooctene, 1,2,3,4,7,8,9,10,13,13,14,14-dodecachloro-1,4,4a,5,6,6a,7,10,10a,11,12,12a-dodecahydro-

> <iupac>
1,2,3,4,7,8,9,10,13,13,14,14-dodecachloro-1,4,4a,5,6,6a,7,10,10a,11,12,12a-dodecahydro-1,4:7,10-dimethanodibenzo[a,e][8]annulene

> <SMILES>
ClC1(Cl)C2(Cl)C3CCC4C(CCC3C1(Cl)C(Cl)=C2Cl)C1(Cl)C(Cl)=C(Cl)C4(Cl)C1(Cl)Cl

> <Canonical_QSARr>
ClC1(Cl)C2(Cl)C3CCC4C(CCC3C1(Cl)C(Cl)=C2Cl)C1(Cl)C(Cl)=C(Cl)C4(Cl)C1(Cl)Cl

> <InChI_Code_QSARr>
InChI=1S/C18H12Cl12/c19-9-10(20)15(25)7-3-4-8-6(2-1-5(7)13(9,23)17(15,27)28)14(24)11(21)12(22)16(8,26)18(14,29)30/h5-8H,1-4H2

> <InChI Key_QSARr>
UGQQAJOWXNCOPY-UHFFFAOYSA-N

> <Salt_Solvent>
?

> <WS Temperature>
25

> <WS Reference>
HPV Robost Summary

> <dsstox_substance_id>
DTXSID7027750

> <LogMolar>
-13.1719

$$$$
13674-87-8
  -INDIGO-01081615412D

 35 34  0  0  0  0  0  0  0  0999 V2000
    2.4141   -0.9813    0.0000 O   0  0  0  0  0  0  0  0  0  0  0  0
    2.9613    0.5222    0.0000 P   0  0  0  0  0  0  0  0  0  0  0  0
    3.2392    2.0978    0.0000 O   0  0  0  0  0  0  0  0  0  0  0  0
    4.7427    2.6451    0.0000 C   0  0  0  0  0  0  0  0  0  0  0  0
    6.2461    3.1923    0.0000 C   0  0  0  0  0  0  0  0  0  0  0  0
    7.7496    3.7396    0.0000 Cl  0  0  0  0  0  0  0  0  0  0  0  0
    6.5240    4.7680    0.0000 H   0  0  0  0  0  0  0  0  0  0  0  0
    7.4719    2.1638    0.0000 H   0  0  0  0  0  0  0  0  0  0  0  0
    4.1954    4.1487    0.0000 C   0  0  0  0  0  0  0  0  0  0  0  0
    3.6482    5.6521    0.0000 Cl  0  0  0  0  0  0  0  0  0  0  0  0
    2.6197    4.4264    0.0000 H   0  0  0  0  0  0  0  0  0  0  0  0
    5.2240    5.3742    0.0000 H   0  0  0  0  0  0  0  0  0  0  0  0
    5.2899    1.1416    0.0000 H   0  0  0  0  0  0  0  0  0  0  0  0
    4.5370    0.2443    0.0000 O   0  0  0  0  0  0  0  0  0  0  0  0
    5.0842   -1.2592    0.0000 C   0  0  0  0  0  0  0  0  0  0  0  0
    5.6315   -2.7628    0.0000 C   0  0  0  0  0  0  0  0  0  0  0  0
    6.1787   -4.2662    0.0000 Cl  0  0  0  0  0  0  0  0  0  0  0  0
    7.2071   -3.0405    0.0000 H   0  0  0  0  0  0  0  0  0  0  0  0
    4.6030   -3.9883    0.0000 H   0  0  0  0  0  0  0  0  0  0  0  0
    6.5877   -0.7119    0.0000 C   0  0  0  0  0  0  0  0  0  0  0  0
    8.0913   -0.1648    0.0000 Cl  0  0  0  0  0  0  0  0  0  0  0  0
    7.8134   -1.7404    0.0000 H   0  0  0  0  0  0  0  0  0  0  0  0
    6.8657    0.8637    0.0000 H   0  0  0  0  0  0  0  0  0  0  0  0
    3.5807   -1.8064    0.0000 H   0  0  0  0  0  0  0  0  0  0  0  0
    1.3856    0.8000    0.0000 O   0  0  0  0  0  0  0  0  0  0  0  0
    0.0000    0.0000    0.0000 C   0  0  0  0  0  0  0  0  0  0  0  0
   -0.7999    1.3856    0.0000 C   0  0  0  0  0  0  0  0  0  0  0  0
   -1.6000    2.7713    0.0000 Cl  0  0  0  0  0  0  0  0  0  0  0  0
   -2.4000    1.3856    0.0000 H   0  0  0  0  0  0  0  0  0  0  0  0
    0.0000    2.7713    0.0000 H   0  0  0  0  0  0  0  0  0  0  0  0
    0.2778   -1.5758    0.0000 C   0  0  0  0  0  0  0  0  0  0  0  0
    0.5557   -3.1514    0.0000 Cl  0  0  0  0  0  0  0  0  0  0  0  0
   -0.9479   -2.6041    0.0000 H   0  0  0  0  0  0  0  0  0  0  0  0
    1.7813   -2.1229    0.0000 H   0  0  0  0  0  0  0  0  0  0  0  0
   -1.3857   -0.8000    0.0000 H   0  0  0  0  0  0  0  0  0  0  0  0
  1  2  2  0  0  0  0
  2  3  1  0  0  0  0
  3  4  1  0  0  0  0
  4  5  1  0  0  0  0
  5  6  1  0  0  0  0
  5  7  1  0  0  0  0
  5  8  1  0  0  0  0
  4  9  1  0  0  0  0
  9 10  1  0  0  0  0
  9 11  1  0  0  0  0
  9 12  1  0  0  0  0
  4 13  1  0  0  0  0
  2 14  1  0  0  0  0
 14 15  1  0  0  0  0
 15 16  1  0  0  0  0
 16 17  1  0  0  0  0
 16 18  1  0  0  0  0
 16 19  1  0  0  0  0
 15 20  1  0  0  0  0
 20 21  1  0  0  0  0
 20 22  1  0  0  0  0
 20 23  1  0  0  0  0
 15 24  1  0  0  0  0
  2 25  1  0  0  0  0
 25 26  1  0  0  0  0
 26 27  1  0  0  0  0
 27 28  1  0  0  0  0
 27 29  1  0  0  0  0
 27 30  1  0  0  0  0
 26 31  1  0  0  0  0
 31 32  1  0  0  0  0
 31 33  1  0  0  0  0
 31 34  1  0  0  0  0
 26 35  1  0  0  0  0
M  END
> <CAS>
13674-87-8

> <NAME>
TRIS(1,3-DICHLOROISOPROPYL) PHOSPHATE

> <preferred_name>
TDCPP

> <iupac>
C9H15Cl6O4P

> <SMILES>
O=P(OC(CCl)CCl)(OC(CCl)CCl)OC(CCl)CCl

> <Canonical_QSARr>
O=P(OC(CCl)CCl)(OC(CCl)CCl)OC(CCl)CCl

> <InChI_Code_QSARr>
InChI=1S/C9H15Cl6O4P/c10-1-7(2-11)17-20(16,18-8(3-12)4-13)19-9(5-14)6-15/h7-9H,1-6H2

> <InChI Key_QSARr>
ASLWPAWFJZFCKF-UHFFFAOYSA-N

> <Salt_Solvent>
?

> <WS Temperature>
24

> <WS Reference>
YALKOWSKY,SH & DANNENFELSER,RM (1992)

> <dsstox_substance_id>
DTXSID9026261

> <LogMolar>
-4.7893

$$$$
13838-08-9
  -INDIGO-01081615412D

 35 35  0  0  0  0  0  0  0  0999 V2000
   -7.4285   -3.9969    0.0000 N   0  0  0  0  0  0  0  0  0  0  0  0
   -5.8285   -3.9969    0.0000 N   0  0  0  0  0  0  0  0  0  0  0  0
   -4.2284   -3.9969    0.0000 N   0  0  0  0  0  0  0  0  0  0  0  0
   -3.4284   -2.6114    0.0000 C   0  0  0  0  0  0  0  0  0  0  0  0
   -2.6285   -1.2257    0.0000 C   0  0  0  0  0  0  0  0  0  0  0  0
   -1.0284   -1.2257    0.0000 N   0  0  0  0  0  0  0  0  0  0  0  0
   -0.0001    0.0000    0.0000 C   0  0  0  0  0  0  0  0  0  0  0  0
    1.3857   -0.8001    0.0000 C   0  0  0  0  0  0  0  0  0  0  0  0
    2.4140    0.4256    0.0000 O   0  0  0  0  0  0  0  0  0  0  0  0
    2.1364    2.0014    0.0000 H   0  0  0  0  0  0  0  0  0  0  0  0
    2.7712   -1.6000    0.0000 C   0  0  0  0  0  0  0  0  0  0  0  0
    2.7712   -3.2000    0.0000 C   0  0  0  0  0  0  0  0  0  0  0  0
    1.3857   -4.0000    0.0000 H   0  0  0  0  0  0  0  0  0  0  0  0
    4.1570   -4.0000    0.0000 C   0  0  0  0  0  0  0  0  0  0  0  0
    4.1570   -5.6000    0.0000 H   0  0  0  0  0  0  0  0  0  0  0  0
    5.5425   -3.2000    0.0000 C   0  0  0  0  0  0  0  0  0  0  0  0
    6.9283   -4.0000    0.0000 N   0  0  0  0  0  0  0  0  0  0  0  0
    6.9283   -5.6000    0.0000 O   0  0  0  0  0  0  0  0  0  0  0  0
    8.3138   -3.2000    0.0000 O   0  0  0  0  0  0  0  0  0  0  0  0
    5.5425   -1.6000    0.0000 C   0  0  0  0  0  0  0  0  0  0  0  0
    6.9283   -0.8001    0.0000 H   0  0  0  0  0  0  0  0  0  0  0  0
    4.1570   -0.8001    0.0000 C   0  0  0  0  0  0  0  0  0  0  0  0
    4.1570    0.8001    0.0000 H   0  0  0  0  0  0  0  0  0  0  0  0
    0.5855   -2.1856    0.0000 H   0  0  0  0  0  0  0  0  0  0  0  0
   -1.2256    1.0284    0.0000 C   0  0  0  0  0  0  0  0  0  0  0  0
   -2.4513    2.0569    0.0000 O   0  0  0  0  0  0  0  0  0  0  0  0
   -2.1734    3.6326    0.0000 H   0  0  0  0  0  0  0  0  0  0  0  0
   -2.2542   -0.1972    0.0000 H   0  0  0  0  0  0  0  0  0  0  0  0
   -0.1972    2.2541    0.0000 H   0  0  0  0  0  0  0  0  0  0  0  0
    1.0285    1.2257    0.0000 H   0  0  0  0  0  0  0  0  0  0  0  0
   -0.4812   -2.7291    0.0000 H   0  0  0  0  0  0  0  0  0  0  0  0
   -3.4284    0.1599    0.0000 O   0  0  0  0  0  0  0  0  0  0  0  0
   -4.8140   -1.8113    0.0000 H   0  0  0  0  0  0  0  0  0  0  0  0
   -2.0429   -3.4113    0.0000 H   0  0  0  0  0  0  0  0  0  0  0  0
   -8.2285   -5.3826    0.0000 H   0  0  0  0  0  0  0  0  0  0  0  0
  1  2  2  0  0  0  0
  2  3  2  0  0  0  0
  3  4  1  0  0  0  0
  4  5  1  0  0  0  0
  5  6  1  0  0  0  0
  6  7  1  0  0  0  0
  7  8  1  0  0  0  0
  8  9  1  0  0  0  0
  9 10  1  0  0  0  0
  8 11  1  0  0  0  0
 11 12  4  0  0  0  0
 12 13  1  0  0  0  0
 12 14  4  0  0  0  0
 14 15  1  0  0  0  0
 14 16  4  0  0  0  0
 16 17  1  0  0  0  0
 17 18  2  0  0  0  0
 17 19  1  0  0  0  0
 16 20  4  0  0  0  0
 20 21  1  0  0  0  0
 20 22  4  0  0  0  0
 22 11  4  0  0  0  0
 22 23  1  0  0  0  0
  8 24  1  0  0  0  0
  7 25  1  0  0  0  0
 25 26  1  0  0  0  0
 26 27  1  0  0  0  0
 25 28  1  0  0  0  0
 25 29  1  0  0  0  0
  7 30  1  0  0  0  0
  6 31  1  0  0  0  0
  5 32  2  0  0  0  0
  4 33  1  0  0  0  0
  4 34  1  0  0  0  0
  1 35  1  0  0  0  0
M  CHG  3   2   1  17   1  19  -1
M  END
> <CAS>
13838-08-9

> <NAME>
Azidamfenicol

> <preferred_name>
Azidamfenicol [INN:BAN:DCF]

> <iupac>
2-azido-N-[(1R,2R)-1,3-dihydroxy-1-(4-nitrophenyl)propan-2-yl]acetamide

> <SMILES>
[N-]=[N+]=NCC(=O)N[C@H](CO)[C@H](O)c1ccc(cc1)[N+]([O-])=O

> <Canonical_QSARr>
N=[N+]=NCC(=O)NC(CO)C(O)c1ccc(cc1)[N+]([O-])=O

> <InChI_Code_QSARr>
InChI=1S/C11H13N5O5/c12-15-13-5-10(18)14-9(6-17)11(19)7-1-3-8(4-2-7)16(20)21/h1-4,9,11-12,17,19H,5-6H2/p+1

> <InChI Key_QSARr>
PNURUELQFSAISW-UHFFFAOYSA-O

> <Salt_Solvent>
?

> <WS Temperature>


> <WS Reference>
MERCK INDEX (1996)

> <dsstox_substance_id>
DTXSID90160647

> <LogMolar>
-1.1692

$$$$
13993-65-2
  -INDIGO-01081615412D

 32 34  0  0  0  0  0  0  0  0999 V2000
    4.1569    0.8001    0.0000 C   0  0  0  0  0  0  0  0  0  0  0  0
    2.7714   -0.0000    0.0000 C   0  0  0  0  0  0  0  0  0  0  0  0
    2.7714   -1.6000    0.0000 H   0  0  0  0  0  0  0  0  0  0  0  0
    1.3857    0.8001    0.0000 C   0  0  0  0  0  0  0  0  0  0  0  0
   -0.0000   -0.0000    0.0000 N   0  0  0  0  0  0  0  0  0  0  0  0
   -1.3857    0.8001    0.0000 C   0  0  0  0  0  0  0  0  0  0  0  0
   -2.7712   -0.0000    0.0000 C   0  0  0  0  0  0  0  0  0  0  0  0
   -2.7712   -1.6000    0.0000 H   0  0  0  0  0  0  0  0  0  0  0  0
   -4.1569    0.8001    0.0000 C   0  0  0  0  0  0  0  0  0  0  0  0
   -5.5426   -0.0000    0.0000 C   0  0  0  0  0  0  0  0  0  0  0  0
   -6.9283   -0.7999    0.0000 C   0  0  0  0  0  0  0  0  0  0  0  0
   -6.9283   -2.3999    0.0000 O   0  0  0  0  0  0  0  0  0  0  0  0
   -8.3138   -0.0000    0.0000 O   0  0  0  0  0  0  0  0  0  0  0  0
   -9.6995   -0.7999    0.0000 H   0  0  0  0  0  0  0  0  0  0  0  0
   -6.3427    1.3856    0.0000 H   0  0  0  0  0  0  0  0  0  0  0  0
   -4.7425   -1.3856    0.0000 H   0  0  0  0  0  0  0  0  0  0  0  0
   -4.1569    2.3999    0.0000 C   0  0  0  0  0  0  0  0  0  0  0  0
   -5.5426    3.2000    0.0000 H   0  0  0  0  0  0  0  0  0  0  0  0
   -2.7712    3.2000    0.0000 C   0  0  0  0  0  0  0  0  0  0  0  0
   -2.7712    4.8000    0.0000 H   0  0  0  0  0  0  0  0  0  0  0  0
   -1.3857    2.4001    0.0000 C   0  0  0  0  0  0  0  0  0  0  0  0
   -0.0000    3.2000    0.0000 S   0  0  0  0  0  0  0  0  0  0  0  0
    1.3857    2.4001    0.0000 C   0  0  0  0  0  0  0  0  0  0  0  0
    2.7714    3.2000    0.0000 C   0  0  0  0  0  0  0  0  0  0  0  0
    2.7714    4.8000    0.0000 H   0  0  0  0  0  0  0  0  0  0  0  0
    4.1569    2.3999    0.0000 C   0  0  0  0  0  0  0  0  0  0  0  0
    5.5426    3.2000    0.0000 H   0  0  0  0  0  0  0  0  0  0  0  0
   -0.0000   -1.6000    0.0000 C   0  0  0  0  0  0  0  0  0  0  0  0
   -0.0000   -3.2000    0.0000 H   0  0  0  0  0  0  0  0  0  0  0  0
    1.3857   -2.4001    0.0000 H   0  0  0  0  0  0  0  0  0  0  0  0
   -1.3857   -2.4001    0.0000 H   0  0  0  0  0  0  0  0  0  0  0  0
    5.5426   -0.0000    0.0000 H   0  0  0  0  0  0  0  0  0  0  0  0
  1  2  4  0  0  0  0
  2  3  1  0  0  0  0
  2  4  4  0  0  0  0
  4  5  1  0  0  0  0
  5  6  1  0  0  0  0
  6  7  4  0  0  0  0
  7  8  1  0  0  0  0
  7  9  4  0  0  0  0
  9 10  1  0  0  0  0
 10 11  1  0  0  0  0
 11 12  2  0  0  0  0
 11 13  1  0  0  0  0
 13 14  1  0  0  0  0
 10 15  1  0  0  0  0
 10 16  1  0  0  0  0
  9 17  4  0  0  0  0
 17 18  1  0  0  0  0
 17 19  4  0  0  0  0
 19 20  1  0  0  0  0
 19 21  4  0  0  0  0
 21  6  4  0  0  0  0
 21 22  1  0  0  0  0
 22 23  1  0  0  0  0
 23  4  4  0  0  0  0
 23 24  4  0  0  0  0
 24 25  1  0  0  0  0
 24 26  4  0  0  0  0
 26  1  4  0  0  0  0
 26 27  1  0  0  0  0
  5 28  1  0  0  0  0
 28 29  1  0  0  0  0
 28 30  1  0  0  0  0
 28 31  1  0  0  0  0
  1 32  1  0  0  0  0
M  END
> <CAS>
13993-65-2

> <NAME>
Metiazinic acid

> <preferred_name>
Metiazinic acid

> <iupac>
(10-methyl-10H-phenothiazin-2-yl)acetic acid

> <SMILES>
CN1c2ccccc2Sc2ccc(CC(O)=O)cc12

> <Canonical_QSARr>
CN1c2ccccc2Sc2ccc(CC(O)=O)cc12

> <InChI_Code_QSARr>
InChI=1S/C15H13NO2S/c1-16-11-4-2-3-5-13(11)19-14-7-6-10(8-12(14)16)9-15(17)18/h2-8H,9H2,1H3,(H,17,18)

> <InChI Key_QSARr>
LMINNBXUMGNKMM-UHFFFAOYSA-N

> <Salt_Solvent>
?

> <WS Temperature>
30

> <WS Reference>
YALKOWSKY,SH & DANNENFELSER,RM (1992)

> <dsstox_substance_id>
DTXSID7023308

> <LogMolar>
-3.9422

$$$$
14144-33-3
  -INDIGO-01081615412D

 21 20  0  0  0  0  0  0  0  0999 V2000
    2.7713    1.6000    0.0000 O   0  0  0  0  0  0  0  0  0  0  0  0
    4.1570    0.8000    0.0000 C   0  0  0  0  0  0  0  0  0  0  0  0
    5.5425   -0.0000    0.0000 C   0  0  0  0  0  0  0  0  0  0  0  0
    6.9282   -0.8000    0.0000 H   0  0  0  0  0  0  0  0  0  0  0  0
    6.9282    0.8000    0.0000 H   0  0  0  0  0  0  0  0  0  0  0  0
    5.5425   -1.6000    0.0000 H   0  0  0  0  0  0  0  0  0  0  0  0
    4.9570    2.1856    0.0000 H   0  0  0  0  0  0  0  0  0  0  0  0
    3.3570   -0.5856    0.0000 H   0  0  0  0  0  0  0  0  0  0  0  0
    1.3856    0.8000    0.0000 C   0  0  0  0  0  0  0  0  0  0  0  0
    0.0001   -0.0000    0.0000 C   0  0  0  0  0  0  0  0  0  0  0  0
   -1.3856   -0.8000    0.0000 C   0  0  0  0  0  0  0  0  0  0  0  0
   -1.3856   -2.4000    0.0000 O   0  0  0  0  0  0  0  0  0  0  0  0
   -2.7713   -0.0000    0.0000 O   0  0  0  0  0  0  0  0  0  0  0  0
   -4.1569   -0.8000    0.0000 C   0  0  0  0  0  0  0  0  0  0  0  0
   -5.5426   -1.6000    0.0000 H   0  0  0  0  0  0  0  0  0  0  0  0
   -5.5426   -0.0000    0.0000 H   0  0  0  0  0  0  0  0  0  0  0  0
   -4.1569   -2.4000    0.0000 H   0  0  0  0  0  0  0  0  0  0  0  0
   -0.7999    1.3856    0.0000 H   0  0  0  0  0  0  0  0  0  0  0  0
    0.8000   -1.3856    0.0000 H   0  0  0  0  0  0  0  0  0  0  0  0
    2.1856   -0.5856    0.0000 H   0  0  0  0  0  0  0  0  0  0  0  0
    0.5856    2.1856    0.0000 H   0  0  0  0  0  0  0  0  0  0  0  0
  1  2  1  0  0  0  0
  2  3  1  0  0  0  0
  3  4  1  0  0  0  0
  3  5  1  0  0  0  0
  3  6  1  0  0  0  0
  2  7  1  0  0  0  0
  2  8  1  0  0  0  0
  1  9  1  0  0  0  0
  9 10  1  0  0  0  0
 10 11  1  0  0  0  0
 11 12  2  0  0  0  0
 11 13  1  0  0  0  0
 13 14  1  0  0  0  0
 14 15  1  0  0  0  0
 14 16  1  0  0  0  0
 14 17  1  0  0  0  0
 10 18  1  0  0  0  0
 10 19  1  0  0  0  0
  9 20  1  0  0  0  0
  9 21  1  0  0  0  0
M  END
> <CAS>
14144-33-3

> <NAME>
Propanoic acid, 3-ethoxy-, methyl ester

> <preferred_name>
PUBCHEM_14876011

> <iupac>
C6H12O3

> <SMILES>
COC(=O)CCOCC

> <Canonical_QSARr>
COC(=O)CCOCC

> <InChI_Code_QSARr>
InChI=1S/C6H12O3/c1-3-9-5-4-6(7)8-2/h3-5H2,1-2H3

> <InChI Key_QSARr>
HSDFKDZBJMDHFF-UHFFFAOYSA-N

> <Salt_Solvent>
?

> <WS Temperature>
25

> <WS Reference>
BEILSTEIN

> <dsstox_substance_id>
DTXSID60564916

> <LogMolar>
-0.0719

$$$$
14144-39-9
  -INDIGO-01081615412D

 24 23  0  0  0  0  0  0  0  0999 V2000
    6.9283   -0.8000    0.0000 C   0  0  0  0  0  0  0  0  0  0  0  0
    5.5426   -0.0000    0.0000 C   0  0  0  0  0  0  0  0  0  0  0  0
    4.1570    0.8000    0.0000 C   0  0  0  0  0  0  0  0  0  0  0  0
    2.7713    1.6000    0.0000 O   0  0  0  0  0  0  0  0  0  0  0  0
    1.3855    0.8000    0.0000 C   0  0  0  0  0  0  0  0  0  0  0  0
    0.0000   -0.0000    0.0000 C   0  0  0  0  0  0  0  0  0  0  0  0
   -1.3857   -0.8000    0.0000 C   0  0  0  0  0  0  0  0  0  0  0  0
   -2.7713   -1.6000    0.0000 H   0  0  0  0  0  0  0  0  0  0  0  0
   -1.3857   -2.4000    0.0000 H   0  0  0  0  0  0  0  0  0  0  0  0
   -2.7713   -0.0000    0.0000 H   0  0  0  0  0  0  0  0  0  0  0  0
   -0.8001    1.3856    0.0000 H   0  0  0  0  0  0  0  0  0  0  0  0
    0.8001   -1.3856    0.0000 H   0  0  0  0  0  0  0  0  0  0  0  0
    2.1856   -0.5856    0.0000 H   0  0  0  0  0  0  0  0  0  0  0  0
    0.5857    2.1856    0.0000 H   0  0  0  0  0  0  0  0  0  0  0  0
    4.9569    2.1856    0.0000 H   0  0  0  0  0  0  0  0  0  0  0  0
    3.3570   -0.5856    0.0000 H   0  0  0  0  0  0  0  0  0  0  0  0
    6.3426    1.3856    0.0000 H   0  0  0  0  0  0  0  0  0  0  0  0
    4.7425   -1.3856    0.0000 H   0  0  0  0  0  0  0  0  0  0  0  0
    8.3138   -0.0000    0.0000 O   0  0  0  0  0  0  0  0  0  0  0  0
    9.6996   -0.8000    0.0000 C   0  0  0  0  0  0  0  0  0  0  0  0
   11.0851   -1.6000    0.0000 H   0  0  0  0  0  0  0  0  0  0  0  0
   11.0851   -0.0000    0.0000 H   0  0  0  0  0  0  0  0  0  0  0  0
    9.6996   -2.4000    0.0000 H   0  0  0  0  0  0  0  0  0  0  0  0
    6.9283   -2.4000    0.0000 O   0  0  0  0  0  0  0  0  0  0  0  0
  1  2  1  0  0  0  0
  2  3  1  0  0  0  0
  3  4  1  0  0  0  0
  4  5  1  0  0  0  0
  5  6  1  0  0  0  0
  6  7  1  0  0  0  0
  7  8  1  0  0  0  0
  7  9  1  0  0  0  0
  7 10  1  0  0  0  0
  6 11  1  0  0  0  0
  6 12  1  0  0  0  0
  5 13  1  0  0  0  0
  5 14  1  0  0  0  0
  3 15  1  0  0  0  0
  3 16  1  0  0  0  0
  2 17  1  0  0  0  0
  2 18  1  0  0  0  0
  1 19  1  0  0  0  0
 19 20  1  0  0  0  0
 20 21  1  0  0  0  0
 20 22  1  0  0  0  0
 20 23  1  0  0  0  0
  1 24  2  0  0  0  0
M  END
> <CAS>
14144-39-9

> <NAME>
Propionic acid, 3-propoxy-, methyl ester

> <preferred_name>


> <iupac>


> <SMILES>
COC(=O)CCOCCC

> <Canonical_QSARr>
COC(=O)CCOCCC

> <InChI_Code_QSARr>
InChI=1S/C7H14O3/c1-3-5-10-6-4-7(8)9-2/h3-6H2,1-2H3

> <InChI Key_QSARr>
DMHHINXESLPPMV-UHFFFAOYSA-N

> <Salt_Solvent>
?

> <WS Temperature>
25

> <WS Reference>
BEILSTEIN

> <dsstox_substance_id>


> <LogMolar>
-0.6334

$$$$
14187-32-7
  -INDIGO-01081615412D

 50 52  0  0  0  0  0  0  0  0999 V2000
    1.3857   -0.8000    0.0000 C   0  0  0  0  0  0  0  0  0  0  0  0
    2.4141   -2.0257    0.0000 O   0  0  0  0  0  0  0  0  0  0  0  0
    2.9614   -3.5292    0.0000 C   0  0  0  0  0  0  0  0  0  0  0  0
    4.3469   -2.7291    0.0000 C   0  0  0  0  0  0  0  0  0  0  0  0
    5.7327   -3.5292    0.0000 C   0  0  0  0  0  0  0  0  0  0  0  0
    5.7327   -5.1291    0.0000 C   0  0  0  0  0  0  0  0  0  0  0  0
    4.3469   -5.9292    0.0000 C   0  0  0  0  0  0  0  0  0  0  0  0
    4.3469   -7.5292    0.0000 H   0  0  0  0  0  0  0  0  0  0  0  0
    2.9614   -5.1291    0.0000 C   0  0  0  0  0  0  0  0  0  0  0  0
    2.4141   -6.6326    0.0000 O   0  0  0  0  0  0  0  0  0  0  0  0
    1.3857   -7.8583    0.0000 C   0  0  0  0  0  0  0  0  0  0  0  0
    2.1036   -9.2881    0.0000 H   0  0  0  0  0  0  0  0  0  0  0  0
    2.9185   -8.3172    0.0000 H   0  0  0  0  0  0  0  0  0  0  0  0
   -0.0001   -8.6583    0.0000 C   0  0  0  0  0  0  0  0  0  0  0  0
   -0.3689  -10.2152    0.0000 H   0  0  0  0  0  0  0  0  0  0  0  0
    0.8792   -9.9951    0.0000 H   0  0  0  0  0  0  0  0  0  0  0  0
   -1.5756   -8.9362    0.0000 O   0  0  0  0  0  0  0  0  0  0  0  0
   -3.1513   -8.6583    0.0000 C   0  0  0  0  0  0  0  0  0  0  0  0
   -4.0306   -9.9951    0.0000 H   0  0  0  0  0  0  0  0  0  0  0  0
   -2.7823  -10.2152    0.0000 H   0  0  0  0  0  0  0  0  0  0  0  0
   -4.5371   -7.8583    0.0000 C   0  0  0  0  0  0  0  0  0  0  0  0
   -6.0699   -8.3172    0.0000 H   0  0  0  0  0  0  0  0  0  0  0  0
   -4.9958   -9.3910    0.0000 H   0  0  0  0  0  0  0  0  0  0  0  0
   -5.5655   -6.6326    0.0000 O   0  0  0  0  0  0  0  0  0  0  0  0
   -6.1129   -5.1291    0.0000 C   0  0  0  0  0  0  0  0  0  0  0  0
   -7.4984   -5.9292    0.0000 C   0  0  0  0  0  0  0  0  0  0  0  0
   -8.8841   -5.1291    0.0000 C   0  0  0  0  0  0  0  0  0  0  0  0
   -8.8841   -3.5292    0.0000 C   0  0  0  0  0  0  0  0  0  0  0  0
   -7.4984   -2.7291    0.0000 C   0  0  0  0  0  0  0  0  0  0  0  0
   -7.4984   -1.1291    0.0000 H   0  0  0  0  0  0  0  0  0  0  0  0
   -6.1129   -3.5292    0.0000 C   0  0  0  0  0  0  0  0  0  0  0  0
   -5.5655   -2.0257    0.0000 O   0  0  0  0  0  0  0  0  0  0  0  0
   -4.5371   -0.8000    0.0000 C   0  0  0  0  0  0  0  0  0  0  0  0
   -4.9958    0.7327    0.0000 H   0  0  0  0  0  0  0  0  0  0  0  0
   -6.0699   -0.3411    0.0000 H   0  0  0  0  0  0  0  0  0  0  0  0
   -3.1513    0.0000    0.0000 C   0  0  0  0  0  0  0  0  0  0  0  0
   -2.7823    1.5569    0.0000 H   0  0  0  0  0  0  0  0  0  0  0  0
   -4.0306    1.3368    0.0000 H   0  0  0  0  0  0  0  0  0  0  0  0
   -1.5756    0.2779    0.0000 O   0  0  0  0  0  0  0  0  0  0  0  0
   -0.0001    0.0000    0.0000 C   0  0  0  0  0  0  0  0  0  0  0  0
    0.8792    1.3368    0.0000 H   0  0  0  0  0  0  0  0  0  0  0  0
   -0.3689    1.5569    0.0000 H   0  0  0  0  0  0  0  0  0  0  0  0
  -10.2697   -2.7291    0.0000 H   0  0  0  0  0  0  0  0  0  0  0  0
  -10.2697   -5.9292    0.0000 H   0  0  0  0  0  0  0  0  0  0  0  0
   -7.4984   -7.5292    0.0000 H   0  0  0  0  0  0  0  0  0  0  0  0
    7.1182   -5.9292    0.0000 H   0  0  0  0  0  0  0  0  0  0  0  0
    7.1182   -2.7291    0.0000 H   0  0  0  0  0  0  0  0  0  0  0  0
    4.3469   -1.1291    0.0000 H   0  0  0  0  0  0  0  0  0  0  0  0
    2.9185   -0.3411    0.0000 H   0  0  0  0  0  0  0  0  0  0  0  0
    1.8444    0.7327    0.0000 H   0  0  0  0  0  0  0  0  0  0  0  0
  1  2  1  0  0  0  0
  2  3  1  0  0  0  0
  3  4  4  0  0  0  0
  4  5  4  0  0  0  0
  5  6  4  0  0  0  0
  6  7  4  0  0  0  0
  7  8  1  0  0  0  0
  7  9  4  0  0  0  0
  9  3  4  0  0  0  0
  9 10  1  0  0  0  0
 10 11  1  0  0  0  0
 11 12  1  0  0  0  0
 11 13  1  0  0  0  0
 11 14  1  0  0  0  0
 14 15  1  0  0  0  0
 14 16  1  0  0  0  0
 14 17  1  0  0  0  0
 17 18  1  0  0  0  0
 18 19  1  0  0  0  0
 18 20  1  0  0  0  0
 18 21  1  0  0  0  0
 21 22  1  0  0  0  0
 21 23  1  0  0  0  0
 21 24  1  0  0  0  0
 24 25  1  0  0  0  0
 25 26  4  0  0  0  0
 26 27  4  0  0  0  0
 27 28  4  0  0  0  0
 28 29  4  0  0  0  0
 29 30  1  0  0  0  0
 29 31  4  0  0  0  0
 31 25  4  0  0  0  0
 31 32  1  0  0  0  0
 32 33  1  0  0  0  0
 33 34  1  0  0  0  0
 33 35  1  0  0  0  0
 33 36  1  0  0  0  0
 36 37  1  0  0  0  0
 36 38  1  0  0  0  0
 36 39  1  0  0  0  0
 39 40  1  0  0  0  0
 40  1  1  0  0  0  0
 40 41  1  0  0  0  0
 40 42  1  0  0  0  0
 28 43  1  0  0  0  0
 27 44  1  0  0  0  0
 26 45  1  0  0  0  0
  6 46  1  0  0  0  0
  5 47  1  0  0  0  0
  4 48  1  0  0  0  0
  1 49  1  0  0  0  0
  1 50  1  0  0  0  0
M  END
> <CAS>
14187-32-7

> <NAME>
[3,3]DB18C6-DIBENZO CROWN ETHER

> <preferred_name>
Dibenzo-18-crown-6

> <iupac>
6,7,9,10,17,18,20,21-octahydrodibenzo[b,k][1,4,7,10,13,16]hexaoxacyclooctadecine

> <SMILES>
C1COc2ccccc2OCCOCCOc2ccccc2OCCO1

> <Canonical_QSARr>
C1COc2ccccc2OCCOCCOc2ccccc2OCCO1

> <InChI_Code_QSARr>
InChI=1S/C20H24O6/c1-2-6-18-17(5-1)23-13-9-21-11-15-25-19-7-3-4-8-20(19)26-16-12-22-10-14-24-18/h1-8H,9-16H2

> <InChI Key_QSARr>
YSSSPARMOAYJTE-UHFFFAOYSA-N

> <Salt_Solvent>
?

> <WS Temperature>
25

> <WS Reference>
YALKOWSKY,SH & DANNENFELSER,RM (1992)

> <dsstox_substance_id>
DTXSID6022428

> <LogMolar>
-4.6935

$$$$
14255-88-0
  -INDIGO-01081615412D

 31 33  0  0  0  0  0  0  0  0999 V2000
    1.0530    2.3651    0.0000 N   0  0  0  1  0  0  0  0  0  0  0  0
    1.3857    0.8001    0.0000 C   0  0  0  0  0  0  0  0  0  0  0  0
    2.7713   -0.0000    0.0000 C   0  0  0  0  0  0  0  0  0  0  0  0
    2.7713   -1.6000    0.0000 C   0  0  0  0  0  0  0  0  0  0  0  0
    4.1569   -2.3999    0.0000 Cl  0  0  0  0  0  0  0  0  0  0  0  0
    1.3857   -2.3999    0.0000 C   0  0  0  0  0  0  0  0  0  0  0  0
    1.3857   -4.0000    0.0000 Cl  0  0  0  0  0  0  0  0  0  0  0  0
   -0.0001   -1.6000    0.0000 C   0  0  0  0  0  0  0  0  0  0  0  0
   -1.3857   -2.3999    0.0000 H   0  0  0  0  0  0  0  0  0  0  0  0
   -0.0001   -0.0000    0.0000 C   0  0  0  0  0  0  0  0  0  0  0  0
   -1.1890    1.0706    0.0000 N   0  0  0  1  0  0  0  0  0  0  0  0
   -2.7541    0.7379    0.0000 C   0  0  0  0  0  0  0  0  0  0  0  0
   -3.8246    1.9270    0.0000 O   0  0  0  0  0  0  0  0  0  0  0  0
   -5.3897    1.5943    0.0000 C   0  0  0  0  0  0  0  0  0  0  0  0
   -6.4602    2.7833    0.0000 C   0  0  0  0  0  0  0  0  0  0  0  0
   -5.9658    4.3050    0.0000 H   0  0  0  0  0  0  0  0  0  0  0  0
   -8.0253    2.4507    0.0000 C   0  0  0  0  0  0  0  0  0  0  0  0
   -9.0960    3.6398    0.0000 H   0  0  0  0  0  0  0  0  0  0  0  0
   -8.5197    0.9290    0.0000 C   0  0  0  0  0  0  0  0  0  0  0  0
  -10.0848    0.5963    0.0000 H   0  0  0  0  0  0  0  0  0  0  0  0
   -7.4492   -0.2600    0.0000 C   0  0  0  0  0  0  0  0  0  0  0  0
   -7.9436   -1.7817    0.0000 H   0  0  0  0  0  0  0  0  0  0  0  0
   -5.8841    0.0726    0.0000 C   0  0  0  0  0  0  0  0  0  0  0  0
   -4.8136   -1.1164    0.0000 H   0  0  0  0  0  0  0  0  0  0  0  0
   -3.2485   -0.7837    0.0000 O   0  0  0  0  0  0  0  0  0  0  0  0
   -0.5382    2.5323    0.0000 C   0  0  0  0  0  0  0  0  0  0  0  0
   -1.3383    3.9179    0.0000 C   0  0  0  0  0  0  0  0  0  0  0  0
   -2.1383    5.3036    0.0000 F   0  0  0  0  0  0  0  0  0  0  0  0
   -0.5382    5.3036    0.0000 F   0  0  0  0  0  0  0  0  0  0  0  0
   -2.9382    3.9179    0.0000 F   0  0  0  0  0  0  0  0  0  0  0  0
    4.1569    0.8001    0.0000 H   0  0  0  0  0  0  0  0  0  0  0  0
  1  2  4  0  0  0  0
  2  3  4  0  0  0  0
  3  4  4  0  0  0  0
  4  5  1  0  0  0  0
  4  6  4  0  0  0  0
  6  7  1  0  0  0  0
  6  8  4  0  0  0  0
  8  9  1  0  0  0  0
  8 10  4  0  0  0  0
 10  2  4  0  0  0  0
 10 11  4  0  0  0  0
 11 12  1  0  0  0  0
 12 13  1  0  0  0  0
 13 14  1  0  0  0  0
 14 15  4  0  0  0  0
 15 16  1  0  0  0  0
 15 17  4  0  0  0  0
 17 18  1  0  0  0  0
 17 19  4  0  0  0  0
 19 20  1  0  0  0  0
 19 21  4  0  0  0  0
 21 22  1  0  0  0  0
 21 23  4  0  0  0  0
 23 14  4  0  0  0  0
 23 24  1  0  0  0  0
 12 25  2  0  0  0  0
 11 26  4  0  0  0  0
 26  1  4  0  0  0  0
 26 27  1  0  0  0  0
 27 28  1  0  0  0  0
 27 29  1  0  0  0  0
 27 30  1  0  0  0  0
  3 31  1  0  0  0  0
M  END
> <CAS>
14255-88-0

> <NAME>
Fenazaflor

> <preferred_name>
Fenazaflor

> <iupac>
phenyl 5,6-dichloro-2-(trifluoromethyl)-1H-benzimidazole-1-carboxylate

> <SMILES>
O=C(Oc1ccccc1)[n]1c([n]c2cc(Cl)c(Cl)cc12)C(F)(F)F

> <Canonical_QSARr>
O=C(Oc1ccccc1)[n]1c([n]c2cc(Cl)c(Cl)cc12)C(F)(F)F

> <InChI_Code_QSARr>
InChI=1S/C15H7Cl2F3N2O2/c16-9-6-11-12(7-10(9)17)22(13(21-11)15(18,19)20)14(23)24-8-4-2-1-3-5-8/h1-7H

> <InChI Key_QSARr>
ISVQSVPUDBVFFU-UHFFFAOYSA-N

> <Salt_Solvent>
?

> <WS Temperature>
25

> <WS Reference>
SHIU, WY ET AL. (1990)

> <dsstox_substance_id>
DTXSID2041969

> <LogMolar>
-4.4603

$$$$
14362-48-2
  -INDIGO-01081615412D

 28 27  0  0  0  0  0  0  0  0999 V2000
    3.2000    0.0000    0.0000 C   0  0  0  0  0  0  0  0  0  0  0  0
    1.5999    0.0000    0.0000 C   0  0  0  0  0  0  0  0  0  0  0  0
    0.0001    0.0000    0.0000 C   0  0  0  0  0  0  0  0  0  0  0  0
   -1.6000    0.0000    0.0000 C   0  0  0  0  0  0  0  0  0  0  0  0
   -3.2000    0.0000    0.0000 Se  0  0  0  0  0  0  0  0  0  0  0  0
   -4.0000   -1.3857    0.0000 Se  0  0  0  0  0  0  0  0  0  0  0  0
   -5.6000   -1.3857    0.0000 C   0  0  0  0  0  0  0  0  0  0  0  0
   -7.2001   -1.3857    0.0000 C   0  0  0  0  0  0  0  0  0  0  0  0
   -8.7999   -1.3857    0.0000 C   0  0  0  0  0  0  0  0  0  0  0  0
  -10.4000   -1.3857    0.0000 C   0  0  0  0  0  0  0  0  0  0  0  0
  -11.1999   -2.7713    0.0000 O   0  0  0  0  0  0  0  0  0  0  0  0
  -12.8000   -2.7713    0.0000 H   0  0  0  0  0  0  0  0  0  0  0  0
  -11.1999    0.0000    0.0000 O   0  0  0  0  0  0  0  0  0  0  0  0
   -8.7999   -2.9856    0.0000 H   0  0  0  0  0  0  0  0  0  0  0  0
   -8.7999    0.2143    0.0000 H   0  0  0  0  0  0  0  0  0  0  0  0
   -7.2001   -2.9856    0.0000 H   0  0  0  0  0  0  0  0  0  0  0  0
   -7.2001    0.2143    0.0000 H   0  0  0  0  0  0  0  0  0  0  0  0
   -5.6000   -2.9856    0.0000 H   0  0  0  0  0  0  0  0  0  0  0  0
   -5.6000    0.2143    0.0000 H   0  0  0  0  0  0  0  0  0  0  0  0
   -1.6000   -1.6000    0.0000 H   0  0  0  0  0  0  0  0  0  0  0  0
   -1.6000    1.6000    0.0000 H   0  0  0  0  0  0  0  0  0  0  0  0
    0.0001    1.6000    0.0000 H   0  0  0  0  0  0  0  0  0  0  0  0
    0.0001   -1.6000    0.0000 H   0  0  0  0  0  0  0  0  0  0  0  0
    1.5999   -1.6000    0.0000 H   0  0  0  0  0  0  0  0  0  0  0  0
    1.5999    1.6000    0.0000 H   0  0  0  0  0  0  0  0  0  0  0  0
    3.9999    1.3857    0.0000 O   0  0  0  0  0  0  0  0  0  0  0  0
    5.6000    1.3857    0.0000 H   0  0  0  0  0  0  0  0  0  0  0  0
    3.9999   -1.3857    0.0000 O   0  0  0  0  0  0  0  0  0  0  0  0
  1  2  1  0  0  0  0
  2  3  1  0  0  0  0
  3  4  1  0  0  0  0
  4  5  1  0  0  0  0
  5  6  1  0  0  0  0
  6  7  1  0  0  0  0
  7  8  1  0  0  0  0
  8  9  1  0  0  0  0
  9 10  1  0  0  0  0
 10 11  1  0  0  0  0
 11 12  1  0  0  0  0
 10 13  2  0  0  0  0
  9 14  1  0  0  0  0
  9 15  1  0  0  0  0
  8 16  1  0  0  0  0
  8 17  1  0  0  0  0
  7 18  1  0  0  0  0
  7 19  1  0  0  0  0
  4 20  1  0  0  0  0
  4 21  1  0  0  0  0
  3 22  1  0  0  0  0
  3 23  1  0  0  0  0
  2 24  1  0  0  0  0
  2 25  1  0  0  0  0
  1 26  1  0  0  0  0
 26 27  1  0  0  0  0
  1 28  2  0  0  0  0
M  END
> <CAS>
14362-48-2

> <NAME>
Butanoic acid, 4,4'-diselenobis-

> <preferred_name>


> <iupac>


> <SMILES>
OC(=O)CCC[Se][Se]CCCC(O)=O

> <Canonical_QSARr>
OC(=O)CCC[Se][Se]CCCC(O)=O

> <InChI_Code_QSARr>
InChI=1S/C8H14O4Se2/c9-7(10)3-1-5-13-14-6-2-4-8(11)12/h1-6H2,(H,9,10)(H,11,12)

> <InChI Key_QSARr>
WORSJCPMKUOXAD-UHFFFAOYSA-N

> <Salt_Solvent>
?

> <WS Temperature>
25

> <WS Reference>
BEILSTEIN

> <dsstox_substance_id>


> <LogMolar>
-2.2471

$$$$
14520-53-7
  -INDIGO-01081615412D

 24 24  0  0  0  0  0  0  0  0999 V2000
   -2.4001    1.3856    0.0000 O   0  0  0  0  0  0  0  0  0  0  0  0
   -4.0001    1.3856    0.0000 C   0  0  0  0  0  0  0  0  0  0  0  0
   -5.6000    1.3856    0.0000 C   0  0  0  0  0  0  0  0  0  0  0  0
   -6.4000    2.7713    0.0000 C   0  0  0  0  0  0  0  0  0  0  0  0
   -8.0000    2.7712    0.0000 H   0  0  0  0  0  0  0  0  0  0  0  0
   -5.6000    4.1569    0.0000 H   0  0  0  0  0  0  0  0  0  0  0  0
   -6.4000   -0.0001    0.0000 H   0  0  0  0  0  0  0  0  0  0  0  0
   -4.0001    2.9856    0.0000 H   0  0  0  0  0  0  0  0  0  0  0  0
   -4.0001   -0.2143    0.0000 H   0  0  0  0  0  0  0  0  0  0  0  0
   -1.5999    0.0001    0.0000 C   0  0  0  0  0  0  0  0  0  0  0  0
   -2.3999   -1.3856    0.0000 C   0  0  0  0  0  0  0  0  0  0  0  0
   -4.0001   -1.3856    0.0000 H   0  0  0  0  0  0  0  0  0  0  0  0
   -1.5999   -2.7712    0.0000 C   0  0  0  0  0  0  0  0  0  0  0  0
   -2.3999   -4.1569    0.0000 H   0  0  0  0  0  0  0  0  0  0  0  0
    0.0000   -2.7712    0.0000 C   0  0  0  0  0  0  0  0  0  0  0  0
    0.8000   -4.1569    0.0000 H   0  0  0  0  0  0  0  0  0  0  0  0
    0.8000   -1.3856    0.0000 C   0  0  0  0  0  0  0  0  0  0  0  0
    2.4000   -1.3856    0.0000 H   0  0  0  0  0  0  0  0  0  0  0  0
    0.0000    0.0001    0.0000 C   0  0  0  0  0  0  0  0  0  0  0  0
    0.8000    1.3856    0.0000 C   0  0  0  0  0  0  0  0  0  0  0  0
    2.4000    1.3856    0.0000 N   0  0  0  0  0  0  0  0  0  0  0  0
    3.2000    2.7713    0.0000 H   0  0  0  0  0  0  0  0  0  0  0  0
    3.2000    0.0001    0.0000 H   0  0  0  0  0  0  0  0  0  0  0  0
    0.0000    2.7713    0.0000 O   0  0  0  0  0  0  0  0  0  0  0  0
  1  2  1  0  0  0  0
  2  3  1  0  0  0  0
  3  4  2  0  0  0  0
  4  5  1  0  0  0  0
  4  6  1  0  0  0  0
  3  7  1  0  0  0  0
  2  8  1  0  0  0  0
  2  9  1  0  0  0  0
  1 10  1  0  0  0  0
 10 11  4  0  0  0  0
 11 12  1  0  0  0  0
 11 13  4  0  0  0  0
 13 14  1  0  0  0  0
 13 15  4  0  0  0  0
 15 16  1  0  0  0  0
 15 17  4  0  0  0  0
 17 18  1  0  0  0  0
 17 19  4  0  0  0  0
 19 10  4  0  0  0  0
 19 20  1  0  0  0  0
 20 21  1  0  0  0  0
 21 22  1  0  0  0  0
 21 23  1  0  0  0  0
 20 24  2  0  0  0  0
M  END
> <CAS>
14520-53-7

> <NAME>
Benzamide, 2-(2-propenyloxy)-

> <preferred_name>
Benzamide, o-(allyloxy)- (6CI,7CI)

> <iupac>
2-prop-2-enoxybenzamide

> <SMILES>
C=CCOc1ccccc1C(N)=O

> <Canonical_QSARr>
C=CCOc1ccccc1C(N)=O

> <InChI_Code_QSARr>
InChI=1S/C10H11NO2/c1-2-7-13-9-6-4-3-5-8(9)10(11)12/h2-6H,1,7H2,(H2,11,12)

> <InChI Key_QSARr>
FZEIWORKISALCO-UHFFFAOYSA-N

> <Salt_Solvent>
?

> <WS Temperature>
20

> <WS Reference>
BEILSTEIN

> <dsstox_substance_id>
DTXSID00162935

> <LogMolar>
-2.2273

$$$$
14816-20-7
  -INDIGO-01081615412D

 34 34  0  0  0  0  0  0  0  0999 V2000
    1.3857    4.0000    0.0000 C   0  0  0  0  0  0  0  0  0  0  0  0
    1.3857    2.4000    0.0000 C   0  0  0  0  0  0  0  0  0  0  0  0
    1.3857    0.8000    0.0000 O   0  0  0  0  0  0  0  0  0  0  0  0
    0.0001    0.0000    0.0000 P   0  0  0  0  0  0  0  0  0  0  0  0
   -1.3857   -0.8000    0.0000 S   0  0  0  0  0  0  0  0  0  0  0  0
   -0.8001    1.3856    0.0000 O   0  0  0  0  0  0  0  0  0  0  0  0
   -2.4000    1.3856    0.0000 N   0  0  0  0  0  0  0  0  0  0  0  0
   -3.1999    2.7713    0.0000 C   0  0  0  0  0  0  0  0  0  0  0  0
   -4.8001    2.7713    0.0000 C   0  0  0  0  0  0  0  0  0  0  0  0
   -5.6000    4.1569    0.0000 C   0  0  0  0  0  0  0  0  0  0  0  0
   -4.8001    5.5426    0.0000 Cl  0  0  0  0  0  0  0  0  0  0  0  0
   -7.1999    4.1569    0.0000 C   0  0  0  0  0  0  0  0  0  0  0  0
   -8.0001    5.5426    0.0000 H   0  0  0  0  0  0  0  0  0  0  0  0
   -8.0001    2.7713    0.0000 C   0  0  0  0  0  0  0  0  0  0  0  0
   -9.6000    2.7713    0.0000 H   0  0  0  0  0  0  0  0  0  0  0  0
   -7.1999    1.3856    0.0000 C   0  0  0  0  0  0  0  0  0  0  0  0
   -8.0001    0.0000    0.0000 H   0  0  0  0  0  0  0  0  0  0  0  0
   -5.6000    1.3856    0.0000 C   0  0  0  0  0  0  0  0  0  0  0  0
   -4.8001    0.0000    0.0000 H   0  0  0  0  0  0  0  0  0  0  0  0
   -2.4000    4.1569    0.0000 C   0  0  0  0  0  0  0  0  0  0  0  0
   -1.6000    5.5426    0.0000 N   0  0  0  0  0  0  0  0  0  0  0  0
    0.8001   -1.3856    0.0000 O   0  0  0  0  0  0  0  0  0  0  0  0
    2.4000   -1.3856    0.0000 C   0  0  0  0  0  0  0  0  0  0  0  0
    4.0001   -1.3856    0.0000 C   0  0  0  0  0  0  0  0  0  0  0  0
    5.6000   -1.3856    0.0000 H   0  0  0  0  0  0  0  0  0  0  0  0
    4.8001   -2.7713    0.0000 H   0  0  0  0  0  0  0  0  0  0  0  0
    4.8001    0.0000    0.0000 H   0  0  0  0  0  0  0  0  0  0  0  0
    2.4000   -2.9856    0.0000 H   0  0  0  0  0  0  0  0  0  0  0  0
    2.4000    0.2144    0.0000 H   0  0  0  0  0  0  0  0  0  0  0  0
    2.9856    2.4000    0.0000 H   0  0  0  0  0  0  0  0  0  0  0  0
   -0.2144    2.4000    0.0000 H   0  0  0  0  0  0  0  0  0  0  0  0
    1.3857    5.6000    0.0000 H   0  0  0  0  0  0  0  0  0  0  0  0
    2.7713    4.8001    0.0000 H   0  0  0  0  0  0  0  0  0  0  0  0
    0.0001    4.8001    0.0000 H   0  0  0  0  0  0  0  0  0  0  0  0
  1  2  1  0  0  0  0
  2  3  1  0  0  0  0
  3  4  1  0  0  0  0
  4  5  2  0  0  0  0
  4  6  1  0  0  0  0
  6  7  1  0  0  0  0
  7  8  2  0  0  0  0
  8  9  1  0  0  0  0
  9 10  4  0  0  0  0
 10 11  1  0  0  0  0
 10 12  4  0  0  0  0
 12 13  1  0  0  0  0
 12 14  4  0  0  0  0
 14 15  1  0  0  0  0
 14 16  4  0  0  0  0
 16 17  1  0  0  0  0
 16 18  4  0  0  0  0
 18  9  4  0  0  0  0
 18 19  1  0  0  0  0
  8 20  1  0  0  0  0
 20 21  3  0  0  0  0
  4 22  1  0  0  0  0
 22 23  1  0  0  0  0
 23 24  1  0  0  0  0
 24 25  1  0  0  0  0
 24 26  1  0  0  0  0
 24 27  1  0  0  0  0
 23 28  1  0  0  0  0
 23 29  1  0  0  0  0
  2 30  1  0  0  0  0
  2 31  1  0  0  0  0
  1 32  1  0  0  0  0
  1 33  1  0  0  0  0
  1 34  1  0  0  0  0
M  END
> <CAS>
14816-20-7

> <NAME>
Chlorphoxim

> <preferred_name>
Chlorphoxim

> <iupac>
3,5-dioxa-6-aza-4-phosphaoct-6-ene-8-nitrile, 7-(2-chlorophenyl)-4-ethoxy-, 4-sulfide

> <SMILES>
CCOP(=S)(ON=C(C#N)c1ccccc1Cl)OCC

> <Canonical_QSARr>
CCOP(=S)(ON=C(C#N)c1ccccc1Cl)OCC

> <InChI_Code_QSARr>
InChI=1S/C12H14ClN2O3PS/c1-3-16-19(20,17-4-2)18-15-12(9-14)10-7-5-6-8-11(10)13/h5-8H,3-4H2,1-2H3/b15-12+

> <InChI Key_QSARr>
GQKRUMZWUHSLJF-NTCAYCPXSA-N

> <Salt_Solvent>
?

> <WS Temperature>
20

> <WS Reference>
FARM CHEMICALS HANDBOOK (1987)

> <dsstox_substance_id>
DTXSID9057979

> <LogMolar>
-5.2917

$$$$
15038-67-2
  -INDIGO-01081615412D

 27 28  0  0  0  0  0  0  0  0999 V2000
    0.0001   -1.6000    0.0000 O   0  0  0  0  0  0  0  0  0  0  0  0
    0.0001    0.0001    0.0000 S   0  0  0  0  0  0  0  0  0  0  0  0
    1.5999    0.0001    0.0000 C   0  0  0  0  0  0  0  0  0  0  0  0
    2.3999   -1.3856    0.0000 C   0  0  0  0  0  0  0  0  0  0  0  0
    1.5999   -2.7712    0.0000 H   0  0  0  0  0  0  0  0  0  0  0  0
    4.0000   -1.3856    0.0000 C   0  0  0  0  0  0  0  0  0  0  0  0
    4.8000   -2.7712    0.0000 H   0  0  0  0  0  0  0  0  0  0  0  0
    4.8000    0.0001    0.0000 C   0  0  0  0  0  0  0  0  0  0  0  0
    6.4000    0.0001    0.0000 H   0  0  0  0  0  0  0  0  0  0  0  0
    4.0000    1.3856    0.0000 C   0  0  0  0  0  0  0  0  0  0  0  0
    4.8000    2.7713    0.0000 H   0  0  0  0  0  0  0  0  0  0  0  0
    2.3999    1.3856    0.0000 C   0  0  0  0  0  0  0  0  0  0  0  0
    1.5999    2.7713    0.0000 O   0  0  0  0  0  0  0  0  0  0  0  0
    2.3999    4.1569    0.0000 H   0  0  0  0  0  0  0  0  0  0  0  0
   -1.5999    0.0001    0.0000 C   0  0  0  0  0  0  0  0  0  0  0  0
   -2.3999    1.3856    0.0000 C   0  0  0  0  0  0  0  0  0  0  0  0
   -1.5999    2.7713    0.0000 H   0  0  0  0  0  0  0  0  0  0  0  0
   -4.0000    1.3856    0.0000 C   0  0  0  0  0  0  0  0  0  0  0  0
   -4.8000    2.7713    0.0000 H   0  0  0  0  0  0  0  0  0  0  0  0
   -4.8000   -0.0001    0.0000 C   0  0  0  0  0  0  0  0  0  0  0  0
   -6.4000    0.0001    0.0000 H   0  0  0  0  0  0  0  0  0  0  0  0
   -4.0000   -1.3856    0.0000 C   0  0  0  0  0  0  0  0  0  0  0  0
   -4.8000   -2.7713    0.0000 H   0  0  0  0  0  0  0  0  0  0  0  0
   -2.3999   -1.3856    0.0000 C   0  0  0  0  0  0  0  0  0  0  0  0
   -1.5999   -2.7712    0.0000 O   0  0  0  0  0  0  0  0  0  0  0  0
   -2.3999   -4.1569    0.0000 H   0  0  0  0  0  0  0  0  0  0  0  0
   -0.0001    1.6000    0.0000 O   0  0  0  0  0  0  0  0  0  0  0  0
  1  2  2  0  0  0  0
  2  3  1  0  0  0  0
  3  4  4  0  0  0  0
  4  5  1  0  0  0  0
  4  6  4  0  0  0  0
  6  7  1  0  0  0  0
  6  8  4  0  0  0  0
  8  9  1  0  0  0  0
  8 10  4  0  0  0  0
 10 11  1  0  0  0  0
 10 12  4  0  0  0  0
 12  3  4  0  0  0  0
 12 13  1  0  0  0  0
 13 14  1  0  0  0  0
  2 15  1  0  0  0  0
 15 16  4  0  0  0  0
 16 17  1  0  0  0  0
 16 18  4  0  0  0  0
 18 19  1  0  0  0  0
 18 20  4  0  0  0  0
 20 21  1  0  0  0  0
 20 22  4  0  0  0  0
 22 23  1  0  0  0  0
 22 24  4  0  0  0  0
 24 15  4  0  0  0  0
 24 25  1  0  0  0  0
 25 26  1  0  0  0  0
  2 27  2  0  0  0  0
M  END
> <CAS>
15038-67-2

> <NAME>
Phenol, 2,2'-sulfonylbis-

> <preferred_name>
Phenol, 2,2'-sulfonylbis-

> <iupac>
2-(2-hydroxyphenyl)sulfonylphenol

> <SMILES>
Oc1ccccc1S(=O)(=O)c1ccccc1O

> <Canonical_QSARr>
Oc1ccccc1S(=O)(=O)c1ccccc1O

> <InChI_Code_QSARr>
InChI=1S/C12H10O4S/c13-9-5-1-3-7-11(9)17(15,16)12-8-4-2-6-10(12)14/h1-8,13-14H

> <InChI Key_QSARr>
QUWAJPZDCZDTJS-UHFFFAOYSA-N

> <Salt_Solvent>
?

> <WS Temperature>
23

> <WS Reference>
BEILSTEIN

> <dsstox_substance_id>
DTXSID1065847

> <LogMolar>
-3.3192

$$$$
15126-06-4
  -INDIGO-01081615412D

 19 19  0  0  0  0  0  0  0  0999 V2000
   -3.2000    2.7713    0.0000 I   0  0  0  0  0  0  0  0  0  0  0  0
   -2.4000    1.3856    0.0000 C   0  0  0  0  0  0  0  0  0  0  0  0
   -3.2000   -0.0000    0.0000 C   0  0  0  0  0  0  0  0  0  0  0  0
   -4.8000   -0.0000    0.0000 O   0  0  0  0  0  0  0  0  0  0  0  0
   -5.6000   -1.3856    0.0000 H   0  0  0  0  0  0  0  0  0  0  0  0
   -2.4000   -1.3856    0.0000 C   0  0  0  0  0  0  0  0  0  0  0  0
   -3.2000   -2.7713    0.0000 H   0  0  0  0  0  0  0  0  0  0  0  0
   -0.8001   -1.3856    0.0000 C   0  0  0  0  0  0  0  0  0  0  0  0
    0.0001   -2.7713    0.0000 H   0  0  0  0  0  0  0  0  0  0  0  0
    0.0001    0.0000    0.0000 C   0  0  0  0  0  0  0  0  0  0  0  0
    1.6001    0.0000    0.0000 C   0  0  0  0  0  0  0  0  0  0  0  0
    2.4000   -1.3856    0.0000 O   0  0  0  0  0  0  0  0  0  0  0  0
    2.4000    1.3856    0.0000 O   0  0  0  0  0  0  0  0  0  0  0  0
    4.0000    1.3856    0.0000 C   0  0  0  0  0  0  0  0  0  0  0  0
    5.6000    1.3856    0.0000 H   0  0  0  0  0  0  0  0  0  0  0  0
    4.8000    2.7713    0.0000 H   0  0  0  0  0  0  0  0  0  0  0  0
    4.8000    0.0000    0.0000 H   0  0  0  0  0  0  0  0  0  0  0  0
   -0.8001    1.3856    0.0000 C   0  0  0  0  0  0  0  0  0  0  0  0
   -0.0001    2.7713    0.0000 H   0  0  0  0  0  0  0  0  0  0  0  0
  1  2  1  0  0  0  0
  2  3  4  0  0  0  0
  3  4  1  0  0  0  0
  4  5  1  0  0  0  0
  3  6  4  0  0  0  0
  6  7  1  0  0  0  0
  6  8  4  0  0  0  0
  8  9  1  0  0  0  0
  8 10  4  0  0  0  0
 10 11  1  0  0  0  0
 11 12  2  0  0  0  0
 11 13  1  0  0  0  0
 13 14  1  0  0  0  0
 14 15  1  0  0  0  0
 14 16  1  0  0  0  0
 14 17  1  0  0  0  0
 10 18  4  0  0  0  0
 18  2  4  0  0  0  0
 18 19  1  0  0  0  0
M  END
> <CAS>
15126-06-4

> <NAME>
Benzoic acid, 4-hydroxy-3-iodo-, methyl ester

> <preferred_name>
Methyl 4-hydroxy-3-iodobenzoate

> <iupac>
C8H7IO3

> <SMILES>
COC(=O)c1ccc(O)c(I)c1

> <Canonical_QSARr>
COC(=O)c1ccc(O)c(I)c1

> <InChI_Code_QSARr>
InChI=1S/C8H7IO3/c1-12-8(11)5-2-3-7(10)6(9)4-5/h2-4,10H,1H3

> <InChI Key_QSARr>
PXNOLLHARLSLHY-UHFFFAOYSA-N

> <Salt_Solvent>
?

> <WS Temperature>
30

> <WS Reference>
BEILSTEIN

> <dsstox_substance_id>
DTXSID00463111

> <LogMolar>
-3.3138

$$$$
15258-73-8
  -INDIGO-01081615412D

 16 16  0  0  0  0  0  0  0  0999 V2000
   -0.0000    2.7713    0.0000 Cl  0  0  0  0  0  0  0  0  0  0  0  0
   -0.8000    1.3856    0.0000 C   0  0  0  0  0  0  0  0  0  0  0  0
   -2.4000    1.3856    0.0000 C   0  0  0  0  0  0  0  0  0  0  0  0
   -3.2001    2.7713    0.0000 H   0  0  0  0  0  0  0  0  0  0  0  0
   -3.2001   -0.0000    0.0000 C   0  0  0  0  0  0  0  0  0  0  0  0
   -4.8000   -0.0000    0.0000 H   0  0  0  0  0  0  0  0  0  0  0  0
   -2.4000   -1.3856    0.0000 C   0  0  0  0  0  0  0  0  0  0  0  0
   -3.2001   -2.7713    0.0000 H   0  0  0  0  0  0  0  0  0  0  0  0
   -0.8000   -1.3856    0.0000 C   0  0  0  0  0  0  0  0  0  0  0  0
   -0.0000   -2.7713    0.0000 Cl  0  0  0  0  0  0  0  0  0  0  0  0
   -0.0000   -0.0000    0.0000 C   0  0  0  0  0  0  0  0  0  0  0  0
    1.6000    0.0000    0.0000 C   0  0  0  0  0  0  0  0  0  0  0  0
    3.2000    0.0000    0.0000 O   0  0  0  0  0  0  0  0  0  0  0  0
    4.0000    1.3856    0.0000 H   0  0  0  0  0  0  0  0  0  0  0  0
    1.6000   -1.6000    0.0000 H   0  0  0  0  0  0  0  0  0  0  0  0
    1.6000    1.6000    0.0000 H   0  0  0  0  0  0  0  0  0  0  0  0
  1  2  1  0  0  0  0
  2  3  4  0  0  0  0
  3  4  1  0  0  0  0
  3  5  4  0  0  0  0
  5  6  1  0  0  0  0
  5  7  4  0  0  0  0
  7  8  1  0  0  0  0
  7  9  4  0  0  0  0
  9 10  1  0  0  0  0
  9 11  4  0  0  0  0
 11  2  4  0  0  0  0
 11 12  1  0  0  0  0
 12 13  1  0  0  0  0
 13 14  1  0  0  0  0
 12 15  1  0  0  0  0
 12 16  1  0  0  0  0
M  END
> <CAS>
15258-73-8

> <NAME>
BENZENEMETHANOL, 2,6-DICHLORO-

> <preferred_name>
Benzenemethanol, 2,6-dichloro- (9CI)

> <iupac>
(2,6-dichlorophenyl)methanol

> <SMILES>
OCc1c(Cl)cccc1Cl

> <Canonical_QSARr>
OCc1c(Cl)cccc1Cl

> <InChI_Code_QSARr>
InChI=1S/C7H6Cl2O/c8-6-2-1-3-7(9)5(6)4-10/h1-3,10H,4H2

> <InChI Key_QSARr>
WKKHCCZLKYKUDN-UHFFFAOYSA-N

> <Salt_Solvent>
?

> <WS Temperature>
25

> <WS Reference>
CHEMICALS INSPECTION AND TESTING INSTITU (1992)

> <dsstox_substance_id>
DTXSID30165075

> <LogMolar>
-2.1019

$$$$
15307-86-5
  -INDIGO-01081615412D

 30 31  0  0  0  0  0  0  0  0999 V2000
   -2.4000    1.3856    0.0000 N   0  0  0  0  0  0  0  0  0  0  0  0
   -1.6000   -0.0000    0.0000 C   0  0  0  0  0  0  0  0  0  0  0  0
   -2.4000   -1.3856    0.0000 C   0  0  0  0  0  0  0  0  0  0  0  0
   -4.0000   -1.3856    0.0000 H   0  0  0  0  0  0  0  0  0  0  0  0
   -1.6000   -2.7713    0.0000 C   0  0  0  0  0  0  0  0  0  0  0  0
   -2.4000   -4.1569    0.0000 H   0  0  0  0  0  0  0  0  0  0  0  0
    0.0000   -2.7713    0.0000 C   0  0  0  0  0  0  0  0  0  0  0  0
    0.8000   -4.1569    0.0000 H   0  0  0  0  0  0  0  0  0  0  0  0
    0.8000   -1.3856    0.0000 C   0  0  0  0  0  0  0  0  0  0  0  0
    2.4000   -1.3856    0.0000 H   0  0  0  0  0  0  0  0  0  0  0  0
    0.0000   -0.0000    0.0000 C   0  0  0  0  0  0  0  0  0  0  0  0
    0.8000    1.3856    0.0000 C   0  0  0  0  0  0  0  0  0  0  0  0
    1.6000    2.7713    0.0000 C   0  0  0  0  0  0  0  0  0  0  0  0
    0.8000    4.1569    0.0000 O   0  0  0  0  0  0  0  0  0  0  0  0
    3.2000    2.7713    0.0000 O   0  0  0  0  0  0  0  0  0  0  0  0
    4.0000    4.1569    0.0000 H   0  0  0  0  0  0  0  0  0  0  0  0
    2.1857    0.5856    0.0000 H   0  0  0  0  0  0  0  0  0  0  0  0
   -0.5857    2.1856    0.0000 H   0  0  0  0  0  0  0  0  0  0  0  0
   -3.7857    2.1856    0.0000 C   0  0  0  0  0  0  0  0  0  0  0  0
   -3.7857    3.7857    0.0000 C   0  0  0  0  0  0  0  0  0  0  0  0
   -2.4000    4.5857    0.0000 Cl  0  0  0  0  0  0  0  0  0  0  0  0
   -5.1714    4.5857    0.0000 C   0  0  0  0  0  0  0  0  0  0  0  0
   -5.1714    6.1856    0.0000 H   0  0  0  0  0  0  0  0  0  0  0  0
   -6.5569    3.7857    0.0000 C   0  0  0  0  0  0  0  0  0  0  0  0
   -7.9426    4.5857    0.0000 H   0  0  0  0  0  0  0  0  0  0  0  0
   -6.5569    2.1856    0.0000 C   0  0  0  0  0  0  0  0  0  0  0  0
   -7.9426    1.3856    0.0000 H   0  0  0  0  0  0  0  0  0  0  0  0
   -5.1714    1.3856    0.0000 C   0  0  0  0  0  0  0  0  0  0  0  0
   -5.1714   -0.2143    0.0000 Cl  0  0  0  0  0  0  0  0  0  0  0  0
   -1.6000    2.7713    0.0000 H   0  0  0  0  0  0  0  0  0  0  0  0
  1  2  1  0  0  0  0
  2  3  4  0  0  0  0
  3  4  1  0  0  0  0
  3  5  4  0  0  0  0
  5  6  1  0  0  0  0
  5  7  4  0  0  0  0
  7  8  1  0  0  0  0
  7  9  4  0  0  0  0
  9 10  1  0  0  0  0
  9 11  4  0  0  0  0
 11  2  4  0  0  0  0
 11 12  1  0  0  0  0
 12 13  1  0  0  0  0
 13 14  2  0  0  0  0
 13 15  1  0  0  0  0
 15 16  1  0  0  0  0
 12 17  1  0  0  0  0
 12 18  1  0  0  0  0
  1 19  1  0  0  0  0
 19 20  4  0  0  0  0
 20 21  1  0  0  0  0
 20 22  4  0  0  0  0
 22 23  1  0  0  0  0
 22 24  4  0  0  0  0
 24 25  1  0  0  0  0
 24 26  4  0  0  0  0
 26 27  1  0  0  0  0
 26 28  4  0  0  0  0
 28 19  4  0  0  0  0
 28 29  1  0  0  0  0
  1 30  1  0  0  0  0
M  END
> <CAS>
15307-86-5

> <NAME>
DICLOFENAC

> <preferred_name>
Diclofenac

> <iupac>
{2-[(2,6-dichlorophenyl)amino]phenyl}acetic acid

> <SMILES>
OC(=O)Cc1ccccc1Nc1c(Cl)cccc1Cl

> <Canonical_QSARr>
OC(=O)Cc1ccccc1Nc1c(Cl)cccc1Cl

> <InChI_Code_QSARr>
InChI=1S/C14H11Cl2NO2/c15-10-5-3-6-11(16)14(10)17-12-7-2-1-4-9(12)8-13(18)19/h1-7,17H,8H2,(H,18,19)

> <InChI Key_QSARr>
DCOPUUMXTXDBNB-UHFFFAOYSA-N

> <Salt_Solvent>
?

> <WS Temperature>
25

> <WS Reference>
FINI,A ET AL. (1986)

> <dsstox_substance_id>
DTXSID6022923

> <LogMolar>
-5.0968

$$$$
15457-05-3
  -INDIGO-01081615412D

 30 31  0  0  0  0  0  0  0  0999 V2000
    2.7713    1.6000    0.0000 C   0  0  0  0  0  0  0  0  0  0  0  0
    4.1569    2.4001    0.0000 O   0  0  0  0  0  0  0  0  0  0  0  0
    5.7569    2.4001    0.0000 C   0  0  0  0  0  0  0  0  0  0  0  0
    6.5570    1.0144    0.0000 C   0  0  0  0  0  0  0  0  0  0  0  0
    5.7569   -0.3713    0.0000 H   0  0  0  0  0  0  0  0  0  0  0  0
    8.1570    1.0144    0.0000 C   0  0  0  0  0  0  0  0  0  0  0  0
    8.9568   -0.3713    0.0000 H   0  0  0  0  0  0  0  0  0  0  0  0
    8.9568    2.4001    0.0000 C   0  0  0  0  0  0  0  0  0  0  0  0
   10.5569    2.4001    0.0000 N   0  0  0  0  0  0  0  0  0  0  0  0
   11.3569    3.7856    0.0000 O   0  0  0  0  0  0  0  0  0  0  0  0
   11.3569    1.0144    0.0000 O   0  0  0  0  0  0  0  0  0  0  0  0
    8.1570    3.7856    0.0000 C   0  0  0  0  0  0  0  0  0  0  0  0
    8.9568    5.1713    0.0000 H   0  0  0  0  0  0  0  0  0  0  0  0
    6.5570    3.7856    0.0000 C   0  0  0  0  0  0  0  0  0  0  0  0
    5.7569    5.1713    0.0000 H   0  0  0  0  0  0  0  0  0  0  0  0
    1.3856    2.4001    0.0000 C   0  0  0  0  0  0  0  0  0  0  0  0
    1.3856    4.0000    0.0000 N   0  0  0  0  0  0  0  0  0  0  0  0
    0.0000    4.8000    0.0000 O   0  0  0  0  0  0  0  0  0  0  0  0
    2.7713    4.8000    0.0000 O   0  0  0  0  0  0  0  0  0  0  0  0
    0.0000    1.6000    0.0000 C   0  0  0  0  0  0  0  0  0  0  0  0
   -1.3857    2.4001    0.0000 H   0  0  0  0  0  0  0  0  0  0  0  0
    0.0000    0.0000    0.0000 C   0  0  0  0  0  0  0  0  0  0  0  0
   -1.3857   -0.8000    0.0000 C   0  0  0  0  0  0  0  0  0  0  0  0
   -2.7713   -1.6000    0.0000 F   0  0  0  0  0  0  0  0  0  0  0  0
   -1.3857   -2.4000    0.0000 F   0  0  0  0  0  0  0  0  0  0  0  0
   -2.7713    0.0000    0.0000 F   0  0  0  0  0  0  0  0  0  0  0  0
    1.3856   -0.8000    0.0000 C   0  0  0  0  0  0  0  0  0  0  0  0
    1.3856   -2.4000    0.0000 H   0  0  0  0  0  0  0  0  0  0  0  0
    2.7713    0.0000    0.0000 C   0  0  0  0  0  0  0  0  0  0  0  0
    4.1569   -0.8000    0.0000 H   0  0  0  0  0  0  0  0  0  0  0  0
  1  2  1  0  0  0  0
  2  3  1  0  0  0  0
  3  4  4  0  0  0  0
  4  5  1  0  0  0  0
  4  6  4  0  0  0  0
  6  7  1  0  0  0  0
  6  8  4  0  0  0  0
  8  9  1  0  0  0  0
  9 10  2  0  0  0  0
  9 11  1  0  0  0  0
  8 12  4  0  0  0  0
 12 13  1  0  0  0  0
 12 14  4  0  0  0  0
 14  3  4  0  0  0  0
 14 15  1  0  0  0  0
  1 16  4  0  0  0  0
 16 17  1  0  0  0  0
 17 18  2  0  0  0  0
 17 19  1  0  0  0  0
 16 20  4  0  0  0  0
 20 21  1  0  0  0  0
 20 22  4  0  0  0  0
 22 23  1  0  0  0  0
 23 24  1  0  0  0  0
 23 25  1  0  0  0  0
 23 26  1  0  0  0  0
 22 27  4  0  0  0  0
 27 28  1  0  0  0  0
 27 29  4  0  0  0  0
 29  1  4  0  0  0  0
 29 30  1  0  0  0  0
M  CHG  4   9   1  11  -1  17   1  19  -1
M  END
> <CAS>
15457-05-3

> <NAME>
FLUORODIFEN

> <preferred_name>
Fluorodifen

> <iupac>
2-nitro-1-(4-nitrophenoxy)-4-(trifluoromethyl)benzene

> <SMILES>
[O-][N+](=O)c1ccc(cc1)Oc1ccc(cc1[N+]([O-])=O)C(F)(F)F

> <Canonical_QSARr>
[O-][N+](=O)c1ccc(cc1)Oc1ccc(cc1[N+]([O-])=O)C(F)(F)F

> <InChI_Code_QSARr>
InChI=1S/C13H7F3N2O5/c14-13(15,16)8-1-6-12(11(7-8)18(21)22)23-10-4-2-9(3-5-10)17(19)20/h1-7H

> <InChI Key_QSARr>
HHMCAJWVGYGUEF-UHFFFAOYSA-N

> <Salt_Solvent>
?

> <WS Temperature>
20

> <WS Reference>
YALKOWSKY,SH & DANNENFELSER,RM (1992)

> <dsstox_substance_id>
DTXSID7037553

> <LogMolar>
-5.2151

$$$$
15804-19-0
  -INDIGO-01081615412D

 18 19  0  0  0  0  0  0  0  0999 V2000
   -0.0001   -0.0000    0.0000 C   0  0  0  0  0  0  0  0  0  0  0  0
   -1.3856    0.8000    0.0000 C   0  0  0  0  0  0  0  0  0  0  0  0
   -1.3856    2.4000    0.0000 H   0  0  0  0  0  0  0  0  0  0  0  0
   -2.7713   -0.0000    0.0000 C   0  0  0  0  0  0  0  0  0  0  0  0
   -4.1569    0.8000    0.0000 H   0  0  0  0  0  0  0  0  0  0  0  0
   -2.7713   -1.6000    0.0000 C   0  0  0  0  0  0  0  0  0  0  0  0
   -4.1569   -2.4000    0.0000 H   0  0  0  0  0  0  0  0  0  0  0  0
   -1.3856   -2.4000    0.0000 C   0  0  0  0  0  0  0  0  0  0  0  0
   -1.3856   -4.0000    0.0000 H   0  0  0  0  0  0  0  0  0  0  0  0
   -0.0001   -1.6000    0.0000 C   0  0  0  0  0  0  0  0  0  0  0  0
    1.3856   -2.4000    0.0000 N   0  0  0  1  0  0  0  0  0  0  0  0
    2.7712   -1.6000    0.0000 C   0  0  0  0  0  0  0  0  0  0  0  0
    4.1569   -2.4000    0.0000 O   0  0  0  0  0  0  0  0  0  0  0  0
    4.1569   -4.0000    0.0000 H   0  0  0  0  0  0  0  0  0  0  0  0
    2.7712   -0.0000    0.0000 C   0  0  0  0  0  0  0  0  0  0  0  0
    4.1569    0.8000    0.0000 O   0  0  0  0  0  0  0  0  0  0  0  0
    4.1569    2.4000    0.0000 H   0  0  0  0  0  0  0  0  0  0  0  0
    1.3856    0.8000    0.0000 N   0  0  0  1  0  0  0  0  0  0  0  0
  1  2  4  0  0  0  0
  2  3  1  0  0  0  0
  2  4  4  0  0  0  0
  4  5  1  0  0  0  0
  4  6  4  0  0  0  0
  6  7  1  0  0  0  0
  6  8  4  0  0  0  0
  8  9  1  0  0  0  0
  8 10  4  0  0  0  0
 10  1  4  0  0  0  0
 10 11  4  0  0  0  0
 11 12  4  0  0  0  0
 12 13  1  0  0  0  0
 13 14  1  0  0  0  0
 12 15  4  0  0  0  0
 15 16  1  0  0  0  0
 16 17  1  0  0  0  0
 15 18  4  0  0  0  0
 18  1  4  0  0  0  0
M  END
> <CAS>
15804-19-0

> <NAME>
QUINOXALINE-1,4-DIHYDRO-2,3-DIONE

> <preferred_name>
2,3-Quinoxalinedione, 1,4-dihydro-

> <iupac>


> <SMILES>
Oc1[n]c2ccccc2[n]c1O

> <Canonical_QSARr>
Oc1[n]c2ccccc2[n]c1O

> <InChI_Code_QSARr>
InChI=1S/C8H6N2O2/c11-7-8(12)10-6-4-2-1-3-5(6)9-7/h1-4H,(H,9,11)(H,10,12)

> <InChI Key_QSARr>
ABJFBJGGLJVMAQ-UHFFFAOYSA-N

> <Salt_Solvent>
?

> <WS Temperature>
25

> <WS Reference>
BEILSTEIN

> <dsstox_substance_id>
DTXSID9065946

> <LogMolar>
-2.812

$$$$
16006-08-9
  -INDIGO-01081615412D

 26 25  0  0  0  0  0  0  0  0999 V2000
   -2.7714    1.6000    0.0000 O   0  0  0  0  0  0  0  0  0  0  0  0
   -4.1568    0.8000    0.0000 C   0  0  0  0  0  0  0  0  0  0  0  0
   -5.5425   -0.0000    0.0000 C   0  0  0  0  0  0  0  0  0  0  0  0
   -6.9282   -0.8000    0.0000 O   0  0  0  0  0  0  0  0  0  0  0  0
   -8.3139   -0.0000    0.0000 C   0  0  0  0  0  0  0  0  0  0  0  0
   -9.6994   -0.8000    0.0000 N   0  0  0  0  0  0  0  0  0  0  0  0
  -11.0851   -0.0000    0.0000 H   0  0  0  0  0  0  0  0  0  0  0  0
   -9.6994   -2.4000    0.0000 H   0  0  0  0  0  0  0  0  0  0  0  0
   -8.3139    1.6000    0.0000 O   0  0  0  0  0  0  0  0  0  0  0  0
   -6.3426    1.3856    0.0000 H   0  0  0  0  0  0  0  0  0  0  0  0
   -4.7425   -1.3856    0.0000 H   0  0  0  0  0  0  0  0  0  0  0  0
   -4.9569    2.1856    0.0000 H   0  0  0  0  0  0  0  0  0  0  0  0
   -3.3570   -0.5856    0.0000 H   0  0  0  0  0  0  0  0  0  0  0  0
   -1.3857    0.8000    0.0000 C   0  0  0  0  0  0  0  0  0  0  0  0
    0.0000   -0.0000    0.0000 C   0  0  0  0  0  0  0  0  0  0  0  0
    1.3857   -0.8000    0.0000 C   0  0  0  0  0  0  0  0  0  0  0  0
    2.7712   -1.6000    0.0000 C   0  0  0  0  0  0  0  0  0  0  0  0
    4.1569   -2.4000    0.0000 H   0  0  0  0  0  0  0  0  0  0  0  0
    2.7712   -3.2000    0.0000 H   0  0  0  0  0  0  0  0  0  0  0  0
    4.1569   -0.8000    0.0000 H   0  0  0  0  0  0  0  0  0  0  0  0
    0.5857   -2.1857    0.0000 H   0  0  0  0  0  0  0  0  0  0  0  0
    2.1856    0.5856    0.0000 H   0  0  0  0  0  0  0  0  0  0  0  0
    0.8001    1.3856    0.0000 H   0  0  0  0  0  0  0  0  0  0  0  0
   -0.8000   -1.3856    0.0000 H   0  0  0  0  0  0  0  0  0  0  0  0
   -2.1857   -0.5856    0.0000 H   0  0  0  0  0  0  0  0  0  0  0  0
   -0.5856    2.1856    0.0000 H   0  0  0  0  0  0  0  0  0  0  0  0
  1  2  1  0  0  0  0
  2  3  1  0  0  0  0
  3  4  1  0  0  0  0
  4  5  1  0  0  0  0
  5  6  1  0  0  0  0
  6  7  1  0  0  0  0
  6  8  1  0  0  0  0
  5  9  2  0  0  0  0
  3 10  1  0  0  0  0
  3 11  1  0  0  0  0
  2 12  1  0  0  0  0
  2 13  1  0  0  0  0
  1 14  1  0  0  0  0
 14 15  1  0  0  0  0
 15 16  1  0  0  0  0
 16 17  1  0  0  0  0
 17 18  1  0  0  0  0
 17 19  1  0  0  0  0
 17 20  1  0  0  0  0
 16 21  1  0  0  0  0
 16 22  1  0  0  0  0
 15 23  1  0  0  0  0
 15 24  1  0  0  0  0
 14 25  1  0  0  0  0
 14 26  1  0  0  0  0
M  END
> <CAS>
16006-08-9

> <NAME>
Ethanol, 2-butoxy-, carbamate

> <preferred_name>
Carbamic acid, (2-butoxyethyl)ester

> <iupac>
2-butoxyethyl carbamate

> <SMILES>
CCCCOCCOC(N)=O

> <Canonical_QSARr>
CCCCOCCOC(N)=O

> <InChI_Code_QSARr>
InChI=1S/C7H15NO3/c1-2-3-4-10-5-6-11-7(8)9/h2-6H2,1H3,(H2,8,9)

> <InChI Key_QSARr>
QHHQZURUTXQADT-UHFFFAOYSA-N

> <Salt_Solvent>
?

> <WS Temperature>


> <WS Reference>
BEILSTEIN

> <dsstox_substance_id>
DTXSID00166791

> <LogMolar>
-0.5084

$$$$
16165-66-5
  -INDIGO-01081615412D

 37 36  0  0  0  0  0  0  0  0999 V2000
   -3.1999    0.0000    0.0000 P   0  0  0  0  0  0  0  0  0  0  0  0
   -1.6000    0.0000    0.0000 C   0  0  0  0  0  0  0  0  0  0  0  0
    0.0001    0.0000    0.0000 C   0  0  0  0  0  0  0  0  0  0  0  0
    1.6000    0.0000    0.0000 C   0  0  0  0  0  0  0  0  0  0  0  0
    3.2001    0.0000    0.0000 C   0  0  0  0  0  0  0  0  0  0  0  0
    4.8000    0.0000    0.0000 C   0  0  0  0  0  0  0  0  0  0  0  0
    6.4001    0.0000    0.0000 C   0  0  0  0  0  0  0  0  0  0  0  0
    8.0000    0.0000    0.0000 H   0  0  0  0  0  0  0  0  0  0  0  0
    7.1999   -1.3856    0.0000 H   0  0  0  0  0  0  0  0  0  0  0  0
    7.1999    1.3856    0.0000 H   0  0  0  0  0  0  0  0  0  0  0  0
    4.8000   -1.6000    0.0000 H   0  0  0  0  0  0  0  0  0  0  0  0
    4.8000    1.6001    0.0000 H   0  0  0  0  0  0  0  0  0  0  0  0
    3.2001   -1.6000    0.0000 H   0  0  0  0  0  0  0  0  0  0  0  0
    3.2001    1.6001    0.0000 H   0  0  0  0  0  0  0  0  0  0  0  0
    1.6000   -1.6000    0.0000 H   0  0  0  0  0  0  0  0  0  0  0  0
    1.6000    1.6001    0.0000 H   0  0  0  0  0  0  0  0  0  0  0  0
    0.0001    1.6001    0.0000 H   0  0  0  0  0  0  0  0  0  0  0  0
    0.0001   -1.6000    0.0000 H   0  0  0  0  0  0  0  0  0  0  0  0
   -1.6000   -1.6000    0.0000 H   0  0  0  0  0  0  0  0  0  0  0  0
   -1.6000    1.6001    0.0000 H   0  0  0  0  0  0  0  0  0  0  0  0
   -3.1999   -1.6000    0.0000 O   0  0  0  0  0  0  0  0  0  0  0  0
   -4.8000    0.0000    0.0000 O   0  0  0  0  0  0  0  0  0  0  0  0
   -5.6001   -1.3856    0.0000 C   0  0  0  0  0  0  0  0  0  0  0  0
   -6.4001   -2.7713    0.0000 C   0  0  0  0  0  0  0  0  0  0  0  0
   -7.1999   -4.1569    0.0000 H   0  0  0  0  0  0  0  0  0  0  0  0
   -8.0000   -2.7713    0.0000 H   0  0  0  0  0  0  0  0  0  0  0  0
   -5.6001   -4.1569    0.0000 H   0  0  0  0  0  0  0  0  0  0  0  0
   -6.9856   -0.5856    0.0000 H   0  0  0  0  0  0  0  0  0  0  0  0
   -4.2143   -2.1857    0.0000 H   0  0  0  0  0  0  0  0  0  0  0  0
   -3.1999    1.6001    0.0000 O   0  0  0  0  0  0  0  0  0  0  0  0
   -4.5856    2.4000    0.0000 C   0  0  0  0  0  0  0  0  0  0  0  0
   -5.9712    3.2000    0.0000 C   0  0  0  0  0  0  0  0  0  0  0  0
   -7.3569    4.0000    0.0000 H   0  0  0  0  0  0  0  0  0  0  0  0
   -5.9712    4.8000    0.0000 H   0  0  0  0  0  0  0  0  0  0  0  0
   -7.3569    2.4000    0.0000 H   0  0  0  0  0  0  0  0  0  0  0  0
   -3.7856    3.7856    0.0000 H   0  0  0  0  0  0  0  0  0  0  0  0
   -5.3857    1.0144    0.0000 H   0  0  0  0  0  0  0  0  0  0  0  0
  1  2  1  0  0  0  0
  2  3  1  0  0  0  0
  3  4  1  0  0  0  0
  4  5  1  0  0  0  0
  5  6  1  0  0  0  0
  6  7  1  0  0  0  0
  7  8  1  0  0  0  0
  7  9  1  0  0  0  0
  7 10  1  0  0  0  0
  6 11  1  0  0  0  0
  6 12  1  0  0  0  0
  5 13  1  0  0  0  0
  5 14  1  0  0  0  0
  4 15  1  0  0  0  0
  4 16  1  0  0  0  0
  3 17  1  0  0  0  0
  3 18  1  0  0  0  0
  2 19  1  0  0  0  0
  2 20  1  0  0  0  0
  1 21  2  0  0  0  0
  1 22  1  0  0  0  0
 22 23  1  0  0  0  0
 23 24  1  0  0  0  0
 24 25  1  0  0  0  0
 24 26  1  0  0  0  0
 24 27  1  0  0  0  0
 23 28  1  0  0  0  0
 23 29  1  0  0  0  0
  1 30  1  0  0  0  0
 30 31  1  0  0  0  0
 31 32  1  0  0  0  0
 32 33  1  0  0  0  0
 32 34  1  0  0  0  0
 32 35  1  0  0  0  0
 31 36  1  0  0  0  0
 31 37  1  0  0  0  0
M  END
> <CAS>
16165-66-5

> <NAME>
Phosphonic acid, hexyl-, diethyl ester

> <preferred_name>
Hexylphosphonic acid diethyl ester

> <iupac>
1-diethoxyphosphorylhexane

> <SMILES>
CCCCCCP(=O)(OCC)OCC

> <Canonical_QSARr>
CCCCCCP(=O)(OCC)OCC

> <InChI_Code_QSARr>
InChI=1S/C10H23O3P/c1-4-7-8-9-10-14(11,12-5-2)13-6-3/h4-10H2,1-3H3

> <InChI Key_QSARr>
VVUJWLDQIIFQHI-UHFFFAOYSA-N

> <Salt_Solvent>
?

> <WS Temperature>
25

> <WS Reference>
BEILSTEIN

> <dsstox_substance_id>
DTXSID60167209

> <LogMolar>
-2.5687

$$$$
16219-75-3
  -INDIGO-01081615412D

 21 22  0  0  0  0  0  0  0  0999 V2000
   -2.3161    0.5964    0.0000 C   0  0  0  0  0  0  0  0  0  0  0  0
   -1.4101   -0.7757    0.0000 C   0  0  0  0  0  0  0  0  0  0  0  0
   -2.7686   -1.6211    0.0000 H   0  0  0  0  0  0  0  0  0  0  0  0
   -0.6015   -2.1564    0.0000 H   0  0  0  0  0  0  0  0  0  0  0  0
    0.0000   -0.0000    0.0000 C   0  0  0  0  0  0  0  0  0  0  0  0
    1.4644   -0.4133    0.0000 C   0  0  0  0  0  0  0  0  0  0  0  0
    1.6836   -1.9983    0.0000 H   0  0  0  0  0  0  0  0  0  0  0  0
    2.8286    0.4228    0.0000 H   0  0  0  0  0  0  0  0  0  0  0  0
   -1.0821    1.3606    0.0000 C   0  0  0  0  0  0  0  0  0  0  0  0
   -0.8100    2.9373    0.0000 C   0  0  0  0  0  0  0  0  0  0  0  0
    0.0645    1.7071    0.0000 C   0  0  0  0  0  0  0  0  0  0  0  0
    1.5976    2.1648    0.0000 H   0  0  0  0  0  0  0  0  0  0  0  0
   -1.1646    4.4975    0.0000 H   0  0  0  0  0  0  0  0  0  0  0  0
   -2.4084    2.2556    0.0000 H   0  0  0  0  0  0  0  0  0  0  0  0
    0.1819   -1.5896    0.0000 H   0  0  0  0  0  0  0  0  0  0  0  0
   -3.8787    0.9398    0.0000 C   0  0  0  0  0  0  0  0  0  0  0  0
   -4.9575   -0.2418    0.0000 C   0  0  0  0  0  0  0  0  0  0  0  0
   -6.0364   -1.4233    0.0000 H   0  0  0  0  0  0  0  0  0  0  0  0
   -6.5202    0.1017    0.0000 H   0  0  0  0  0  0  0  0  0  0  0  0
   -4.4736   -1.7668    0.0000 H   0  0  0  0  0  0  0  0  0  0  0  0
   -4.3626    2.4649    0.0000 H   0  0  0  0  0  0  0  0  0  0  0  0
  1  2  1  0  0  0  0
  2  3  1  0  0  0  0
  2  4  1  0  0  0  0
  2  5  1  0  0  0  0
  5  6  1  0  0  0  0
  6  7  1  0  0  0  0
  6  8  1  0  0  0  0
  6  9  1  0  0  0  0
  9  1  1  0  0  0  0
  9 10  1  0  0  0  0
 10 11  2  0  0  0  0
 11  5  1  0  0  0  0
 11 12  1  0  0  0  0
 10 13  1  0  0  0  0
  9 14  1  0  0  0  0
  5 15  1  0  0  0  0
  1 16  2  0  0  0  0
 16 17  1  0  0  0  0
 17 18  1  0  0  0  0
 17 19  1  0  0  0  0
 17 20  1  0  0  0  0
 16 21  1  0  0  0  0
M  END
> <CAS>
16219-75-3

> <NAME>
ETHYLIDENE NORBORNENE

> <preferred_name>
5-Ethylidene-2-norbornene

> <iupac>
5-ethylidenebicyclo[2.2.1]hept-2-ene

> <SMILES>
CC=C1CC2CC1C=C2

> <Canonical_QSARr>
CC=C1CC2CC1C=C2

> <InChI_Code_QSARr>
InChI=1S/C9H12/c1-2-8-5-7-3-4-9(8)6-7/h2-4,7,9H,5-6H2,1H3/b8-2+

> <InChI Key_QSARr>
OJOWICOBYCXEKR-KRXBUXKQSA-N

> <Salt_Solvent>
?

> <WS Temperature>
25

> <WS Reference>
CHEMICALS INSPECTION AND TESTING INSTITU (1992)

> <dsstox_substance_id>
DTXSID1025306

> <LogMolar>
-4.1305

$$$$
16490-68-9
  -INDIGO-01081615412D

 10  9  0  0  0  0  0  0  0  0999 V2000
    0.0000    1.6000    0.0000 Cl  0  0  0  0  0  0  0  0  0  0  0  0
    0.0000    0.0000    0.0000 C   0  0  0  0  0  0  0  0  0  0  0  0
   -1.3856   -0.8000    0.0000 C   0  0  0  0  0  0  0  0  0  0  0  0
   -2.7713    0.0000    0.0000 H   0  0  0  0  0  0  0  0  0  0  0  0
   -1.3856   -2.4000    0.0000 H   0  0  0  0  0  0  0  0  0  0  0  0
    1.3856   -0.8000    0.0000 C   0  0  0  0  0  0  0  0  0  0  0  0
    2.7713    0.0000    0.0000 N   0  0  0  0  0  0  0  0  0  0  0  0
    4.1569   -0.8000    0.0000 H   0  0  0  0  0  0  0  0  0  0  0  0
    2.7713    1.6000    0.0000 H   0  0  0  0  0  0  0  0  0  0  0  0
    1.3856   -2.4000    0.0000 O   0  0  0  0  0  0  0  0  0  0  0  0
  1  2  1  0  0  0  0
  2  3  2  0  0  0  0
  3  4  1  0  0  0  0
  3  5  1  0  0  0  0
  2  6  1  0  0  0  0
  6  7  1  0  0  0  0
  7  8  1  0  0  0  0
  7  9  1  0  0  0  0
  6 10  2  0  0  0  0
M  END
> <CAS>
16490-68-9

> <NAME>
2-Propenamide, 2-chloro-

> <preferred_name>
2-Chloroacrylamide

> <iupac>
2-chloroprop-2-enamide

> <SMILES>
C=C(Cl)C(N)=O

> <Canonical_QSARr>
C=C(Cl)C(N)=O

> <InChI_Code_QSARr>
InChI=1S/C3H4ClNO/c1-2(4)3(5)6/h1H2,(H2,5,6)

> <InChI Key_QSARr>
YBXYCBGDIALKAK-UHFFFAOYSA-N

> <Salt_Solvent>
?

> <WS Temperature>
20

> <WS Reference>
BEILSTEIN

> <dsstox_substance_id>
DTXSID60167820

> <LogMolar>
-0.2104

$$$$
16631-06-4
  -INDIGO-01081615412D

 24 23  0  0  0  0  0  0  0  0999 V2000
    0.0001    1.6000    0.0000 C   0  0  0  0  0  0  0  0  0  0  0  0
    0.0001   -0.0000    0.0000 C   0  0  0  0  0  0  0  0  0  0  0  0
   -1.5757   -0.2779    0.0000 C   0  0  0  0  0  0  0  0  0  0  0  0
   -3.1514   -0.5557    0.0000 C   0  0  0  0  0  0  0  0  0  0  0  0
   -3.6986   -2.0592    0.0000 C   0  0  0  0  0  0  0  0  0  0  0  0
   -5.2743   -2.3371    0.0000 H   0  0  0  0  0  0  0  0  0  0  0  0
   -2.6701   -3.2849    0.0000 H   0  0  0  0  0  0  0  0  0  0  0  0
   -4.1799    0.6699    0.0000 H   0  0  0  0  0  0  0  0  0  0  0  0
   -1.2978   -1.8535    0.0000 H   0  0  0  0  0  0  0  0  0  0  0  0
   -1.8535    1.2978    0.0000 H   0  0  0  0  0  0  0  0  0  0  0  0
    1.5999   -0.0000    0.0000 C   0  0  0  0  0  0  0  0  0  0  0  0
    3.1757    0.2778    0.0000 C   0  0  0  0  0  0  0  0  0  0  0  0
    4.7514    0.5556    0.0000 H   0  0  0  0  0  0  0  0  0  0  0  0
    3.7229    1.7813    0.0000 H   0  0  0  0  0  0  0  0  0  0  0  0
    4.2042   -0.9479    0.0000 H   0  0  0  0  0  0  0  0  0  0  0  0
    1.8778   -1.5757    0.0000 C   0  0  0  0  0  0  0  0  0  0  0  0
    3.3813   -2.1229    0.0000 O   0  0  0  0  0  0  0  0  0  0  0  0
    3.6592   -3.6986    0.0000 H   0  0  0  0  0  0  0  0  0  0  0  0
    0.6522   -2.6042    0.0000 O   0  0  0  0  0  0  0  0  0  0  0  0
    1.3221    1.5757    0.0000 H   0  0  0  0  0  0  0  0  0  0  0  0
    0.0001   -1.6000    0.0000 H   0  0  0  0  0  0  0  0  0  0  0  0
   -1.2256    2.6284    0.0000 O   0  0  0  0  0  0  0  0  0  0  0  0
   -0.9478    4.2042    0.0000 H   0  0  0  0  0  0  0  0  0  0  0  0
    1.2256    2.6284    0.0000 O   0  0  0  0  0  0  0  0  0  0  0  0
  1  2  1  0  0  0  0
  2  3  1  0  0  0  0
  3  4  1  0  0  0  0
  4  5  2  0  0  0  0
  5  6  1  0  0  0  0
  5  7  1  0  0  0  0
  4  8  1  0  0  0  0
  3  9  1  0  0  0  0
  3 10  1  0  0  0  0
  2 11  1  0  0  0  0
 11 12  1  0  0  0  0
 12 13  1  0  0  0  0
 12 14  1  0  0  0  0
 12 15  1  0  0  0  0
 11 16  1  0  0  0  0
 16 17  1  0  0  0  0
 17 18  1  0  0  0  0
 16 19  2  0  0  0  0
 11 20  1  0  0  0  0
  2 21  1  0  0  0  0
  1 22  1  0  0  0  0
 22 23  1  0  0  0  0
  1 24  2  0  0  0  0
M  END
> <CAS>
16631-06-4

> <NAME>
Succinic acid, 2-allyl-3-methyl-, erythro-

> <preferred_name>


> <iupac>


> <SMILES>
CC(C(CC=C)C(O)=O)C(O)=O

> <Canonical_QSARr>
CC(C(CC=C)C(O)=O)C(O)=O

> <InChI_Code_QSARr>
InChI=1S/C8H12O4/c1-3-4-6(8(11)12)5(2)7(9)10/h3,5-6H,1,4H2,2H3,(H,9,10)(H,11,12)

> <InChI Key_QSARr>
CZTPMDLWMYKCCU-UHFFFAOYSA-N

> <Salt_Solvent>
?

> <WS Temperature>
20

> <WS Reference>
BEILSTEIN

> <dsstox_substance_id>


> <LogMolar>
-1.0599

$$$$
16766-29-3
  -INDIGO-01081615412D

 20 20  0  0  0  0  0  0  0  0999 V2000
   -2.3999   -1.3856    0.0000 Cl  0  0  0  0  0  0  0  0  0  0  0  0
   -0.8000   -1.3856    0.0000 C   0  0  0  0  0  0  0  0  0  0  0  0
   -0.0000   -2.7713    0.0000 C   0  0  0  0  0  0  0  0  0  0  0  0
   -0.8000   -4.1569    0.0000 Cl  0  0  0  0  0  0  0  0  0  0  0  0
    1.6000   -2.7713    0.0000 C   0  0  0  0  0  0  0  0  0  0  0  0
    2.4000   -4.1569    0.0000 Cl  0  0  0  0  0  0  0  0  0  0  0  0
    2.4000   -1.3856    0.0000 C   0  0  0  0  0  0  0  0  0  0  0  0
    4.0001   -1.3856    0.0000 H   0  0  0  0  0  0  0  0  0  0  0  0
    1.6000    0.0000    0.0000 C   0  0  0  0  0  0  0  0  0  0  0  0
    2.4000    1.3856    0.0000 O   0  0  0  0  0  0  0  0  0  0  0  0
    4.0001    1.3856    0.0000 C   0  0  0  0  0  0  0  0  0  0  0  0
    4.8000    2.7713    0.0000 H   0  0  0  0  0  0  0  0  0  0  0  0
    5.6000    1.3856    0.0000 H   0  0  0  0  0  0  0  0  0  0  0  0
    3.2000    2.7713    0.0000 H   0  0  0  0  0  0  0  0  0  0  0  0
   -0.0000    0.0000    0.0000 C   0  0  0  0  0  0  0  0  0  0  0  0
   -0.8000    1.3856    0.0000 O   0  0  0  0  0  0  0  0  0  0  0  0
   -2.3999    1.3856    0.0000 C   0  0  0  0  0  0  0  0  0  0  0  0
   -3.2000    2.7713    0.0000 H   0  0  0  0  0  0  0  0  0  0  0  0
   -4.0000    1.3856    0.0000 H   0  0  0  0  0  0  0  0  0  0  0  0
   -1.6000    2.7713    0.0000 H   0  0  0  0  0  0  0  0  0  0  0  0
  1  2  1  0  0  0  0
  2  3  4  0  0  0  0
  3  4  1  0  0  0  0
  3  5  4  0  0  0  0
  5  6  1  0  0  0  0
  5  7  4  0  0  0  0
  7  8  1  0  0  0  0
  7  9  4  0  0  0  0
  9 10  1  0  0  0  0
 10 11  1  0  0  0  0
 11 12  1  0  0  0  0
 11 13  1  0  0  0  0
 11 14  1  0  0  0  0
  9 15  4  0  0  0  0
 15  2  4  0  0  0  0
 15 16  1  0  0  0  0
 16 17  1  0  0  0  0
 17 18  1  0  0  0  0
 17 19  1  0  0  0  0
 17 20  1  0  0  0  0
M  END
> <CAS>
16766-29-3

> <NAME>
3,4,5-Trichloroveratrole

> <preferred_name>
Benzene, 1,2,3-trichloro-4,5-dimethoxy-

> <iupac>
1,2,3-TRICHLORO-4,5-DIMETHOXYBENZENE

> <SMILES>
COc1c(cc(Cl)c(Cl)c1Cl)OC

> <Canonical_QSARr>
COc1c(cc(Cl)c(Cl)c1Cl)OC

> <InChI_Code_QSARr>
InChI=1S/C8H7Cl3O2/c1-12-5-3-4(9)6(10)7(11)8(5)13-2/h3H,1-2H3

> <InChI Key_QSARr>
VKNITLPENCJQOP-UHFFFAOYSA-N

> <Salt_Solvent>
?

> <WS Temperature>
25

> <WS Reference>
LUN,R ET AL. (1995)

> <dsstox_substance_id>
DTXSID70168343

> <LogMolar>
-4.3701

$$$$
16845-41-3
  -INDIGO-01081615412D

 27 28  0  0  0  0  0  0  0  0999 V2000
    2.4000   -1.3856    0.0000 C   0  0  0  0  0  0  0  0  0  0  0  0
    1.6000    0.0000    0.0000 N   0  0  0  0  0  0  0  0  0  0  0  0
    0.0000    0.0000    0.0000 C   0  0  0  0  0  0  0  0  0  0  0  0
   -0.8000    1.3856    0.0000 C   0  0  0  0  0  0  0  0  0  0  0  0
    0.0000    2.7713    0.0000 H   0  0  0  0  0  0  0  0  0  0  0  0
   -2.4000    1.3856    0.0000 C   0  0  0  0  0  0  0  0  0  0  0  0
   -3.2000    2.7713    0.0000 H   0  0  0  0  0  0  0  0  0  0  0  0
   -3.2000    0.0000    0.0000 C   0  0  0  0  0  0  0  0  0  0  0  0
   -4.8000    0.0000    0.0000 H   0  0  0  0  0  0  0  0  0  0  0  0
   -2.4000   -1.3856    0.0000 C   0  0  0  0  0  0  0  0  0  0  0  0
   -3.2000   -2.7713    0.0000 H   0  0  0  0  0  0  0  0  0  0  0  0
   -0.8000   -1.3856    0.0000 C   0  0  0  0  0  0  0  0  0  0  0  0
    0.0000   -2.7713    0.0000 H   0  0  0  0  0  0  0  0  0  0  0  0
    2.4000    1.3856    0.0000 O   0  0  0  0  0  0  0  0  0  0  0  0
    1.6000    2.7713    0.0000 H   0  0  0  0  0  0  0  0  0  0  0  0
    4.0000   -1.3856    0.0000 C   0  0  0  0  0  0  0  0  0  0  0  0
    4.8000   -2.7713    0.0000 C   0  0  0  0  0  0  0  0  0  0  0  0
    4.0000   -4.1569    0.0000 H   0  0  0  0  0  0  0  0  0  0  0  0
    6.4000   -2.7713    0.0000 C   0  0  0  0  0  0  0  0  0  0  0  0
    7.2000   -4.1569    0.0000 H   0  0  0  0  0  0  0  0  0  0  0  0
    7.2000   -1.3856    0.0000 C   0  0  0  0  0  0  0  0  0  0  0  0
    8.8000   -1.3856    0.0000 Cl  0  0  0  0  0  0  0  0  0  0  0  0
    6.4000    0.0000    0.0000 C   0  0  0  0  0  0  0  0  0  0  0  0
    7.2000    1.3856    0.0000 H   0  0  0  0  0  0  0  0  0  0  0  0
    4.8000    0.0000    0.0000 C   0  0  0  0  0  0  0  0  0  0  0  0
    4.0000    1.3856    0.0000 Cl  0  0  0  0  0  0  0  0  0  0  0  0
    1.6000   -2.7713    0.0000 O   0  0  0  0  0  0  0  0  0  0  0  0
  1  2  1  0  0  0  0
  2  3  1  0  0  0  0
  3  4  4  0  0  0  0
  4  5  1  0  0  0  0
  4  6  4  0  0  0  0
  6  7  1  0  0  0  0
  6  8  4  0  0  0  0
  8  9  1  0  0  0  0
  8 10  4  0  0  0  0
 10 11  1  0  0  0  0
 10 12  4  0  0  0  0
 12  3  4  0  0  0  0
 12 13  1  0  0  0  0
  2 14  1  0  0  0  0
 14 15  1  0  0  0  0
  1 16  1  0  0  0  0
 16 17  4  0  0  0  0
 17 18  1  0  0  0  0
 17 19  4  0  0  0  0
 19 20  1  0  0  0  0
 19 21  4  0  0  0  0
 21 22  1  0  0  0  0
 21 23  4  0  0  0  0
 23 24  1  0  0  0  0
 23 25  4  0  0  0  0
 25 16  4  0  0  0  0
 25 26  1  0  0  0  0
  1 27  2  0  0  0  0
M  END
> <CAS>
16845-41-3

> <NAME>
Benzamide, 2,4-dichloro-N-hydroxy-N-phenyl-

> <preferred_name>


> <iupac>


> <SMILES>
ON(C(=O)c1ccc(Cl)cc1Cl)c1ccccc1

> <Canonical_QSARr>
ON(C(=O)c1ccc(Cl)cc1Cl)c1ccccc1

> <InChI_Code_QSARr>
InChI=1S/C13H9Cl2NO2/c14-9-6-7-11(12(15)8-9)13(17)16(18)10-4-2-1-3-5-10/h1-8,18H

> <InChI Key_QSARr>
HUOHOGDVFDYSTQ-UHFFFAOYSA-N

> <Salt_Solvent>
?

> <WS Temperature>


> <WS Reference>
BEILSTEIN

> <dsstox_substance_id>


> <LogMolar>
-3.6723

$$$$
17013-41-1
  -INDIGO-01081615412D

 37 37  0  0  0  0  0  0  0  0999 V2000
    0.5221    2.9613    0.0000 O   0  0  0  0  0  0  0  0  0  0  0  0
    0.8000    1.3857    0.0000 C   0  0  0  0  0  0  0  0  0  0  0  0
   -0.0001    0.0000    0.0000 C   0  0  0  0  0  0  0  0  0  0  0  0
   -1.2256    1.0284    0.0000 C   0  0  0  0  0  0  0  0  0  0  0  0
   -2.4513    2.0570    0.0000 C   0  0  0  0  0  0  0  0  0  0  0  0
   -3.6770    3.0854    0.0000 C   0  0  0  0  0  0  0  0  0  0  0  0
   -4.9027    4.1139    0.0000 C   0  0  0  0  0  0  0  0  0  0  0  0
   -6.1284    5.1423    0.0000 H   0  0  0  0  0  0  0  0  0  0  0  0
   -6.4062    3.5667    0.0000 H   0  0  0  0  0  0  0  0  0  0  0  0
   -4.6248    5.6895    0.0000 H   0  0  0  0  0  0  0  0  0  0  0  0
   -4.7055    1.8598    0.0000 H   0  0  0  0  0  0  0  0  0  0  0  0
   -2.6485    4.3111    0.0000 H   0  0  0  0  0  0  0  0  0  0  0  0
   -3.4798    0.8312    0.0000 H   0  0  0  0  0  0  0  0  0  0  0  0
   -1.4228    3.2825    0.0000 H   0  0  0  0  0  0  0  0  0  0  0  0
   -0.1971    2.2542    0.0000 H   0  0  0  0  0  0  0  0  0  0  0  0
   -2.1856    0.5857    0.0000 H   0  0  0  0  0  0  0  0  0  0  0  0
   -1.3856   -0.7999    0.0000 C   0  0  0  0  0  0  0  0  0  0  0  0
   -2.7713   -1.5999    0.0000 C   0  0  0  0  0  0  0  0  0  0  0  0
   -4.1570   -2.4001    0.0000 C   0  0  0  0  0  0  0  0  0  0  0  0
   -5.5425   -3.2000    0.0000 C   0  0  0  0  0  0  0  0  0  0  0  0
   -6.9282   -4.0000    0.0000 H   0  0  0  0  0  0  0  0  0  0  0  0
   -6.9282   -2.4001    0.0000 H   0  0  0  0  0  0  0  0  0  0  0  0
   -5.5425   -4.8000    0.0000 H   0  0  0  0  0  0  0  0  0  0  0  0
   -4.9569   -1.0144    0.0000 H   0  0  0  0  0  0  0  0  0  0  0  0
   -3.3569   -3.7857    0.0000 H   0  0  0  0  0  0  0  0  0  0  0  0
   -3.5713   -0.2143    0.0000 H   0  0  0  0  0  0  0  0  0  0  0  0
   -1.9713   -2.9856    0.0000 H   0  0  0  0  0  0  0  0  0  0  0  0
   -2.2541   -0.1972    0.0000 H   0  0  0  0  0  0  0  0  0  0  0  0
   -0.5856   -2.1856    0.0000 H   0  0  0  0  0  0  0  0  0  0  0  0
    0.8000   -1.3856    0.0000 C   0  0  0  0  0  0  0  0  0  0  0  0
    0.2528   -2.8892    0.0000 O   0  0  0  0  0  0  0  0  0  0  0  0
    2.4000   -1.3856    0.0000 N   0  0  0  0  0  0  0  0  0  0  0  0
    3.2001   -2.7712    0.0000 H   0  0  0  0  0  0  0  0  0  0  0  0
    3.1999    0.0000    0.0000 C   0  0  0  0  0  0  0  0  0  0  0  0
    4.8000    0.0000    0.0000 O   0  0  0  0  0  0  0  0  0  0  0  0
    2.4000    1.3857    0.0000 N   0  0  0  0  0  0  0  0  0  0  0  0
    3.1999    2.7713    0.0000 H   0  0  0  0  0  0  0  0  0  0  0  0
  1  2  2  0  0  0  0
  2  3  1  0  0  0  0
  3  4  1  0  0  0  0
  4  5  1  0  0  0  0
  5  6  1  0  0  0  0
  6  7  1  0  0  0  0
  7  8  1  0  0  0  0
  7  9  1  0  0  0  0
  7 10  1  0  0  0  0
  6 11  1  0  0  0  0
  6 12  1  0  0  0  0
  5 13  1  0  0  0  0
  5 14  1  0  0  0  0
  4 15  1  0  0  0  0
  4 16  1  0  0  0  0
  3 17  1  0  0  0  0
 17 18  1  0  0  0  0
 18 19  1  0  0  0  0
 19 20  1  0  0  0  0
 20 21  1  0  0  0  0
 20 22  1  0  0  0  0
 20 23  1  0  0  0  0
 19 24  1  0  0  0  0
 19 25  1  0  0  0  0
 18 26  1  0  0  0  0
 18 27  1  0  0  0  0
 17 28  1  0  0  0  0
 17 29  1  0  0  0  0
  3 30  1  0  0  0  0
 30 31  2  0  0  0  0
 30 32  1  0  0  0  0
 32 33  1  0  0  0  0
 32 34  1  0  0  0  0
 34 35  2  0  0  0  0
 34 36  1  0  0  0  0
 36  2  1  0  0  0  0
 36 37  1  0  0  0  0
M  END
> <CAS>
17013-41-1

> <NAME>
BARBITURIC ACID,5,5-DIBUTYL-

> <preferred_name>
Barbituric acid, 5,5-dibutyl-

> <iupac>
5,5-dibutyl-1,3-diazinane-2,4,6-trione

> <SMILES>
CCCCC1(CCCC)C(=O)NC(=O)NC1=O

> <Canonical_QSARr>
CCCCC1(CCCC)C(=O)NC(=O)NC1=O

> <InChI_Code_QSARr>
InChI=1S/C12H20N2O3/c1-3-5-7-12(8-6-4-2)9(15)13-11(17)14-10(12)16/h3-8H2,1-2H3,(H2,13,14,15,16,17)

> <InChI Key_QSARr>
KXOZJFGEGGNJDX-UHFFFAOYSA-N

> <Salt_Solvent>
?

> <WS Temperature>
20

> <WS Reference>
BEILSTEIN

> <dsstox_substance_id>
DTXSID90168805

> <LogMolar>
-2.8756

$$$$
17056-99-4
  -INDIGO-01081615412D

 17 18  0  0  0  0  0  0  0  0999 V2000
   -1.3856    4.0000    0.0000 O   0  0  0  0  0  0  0  0  0  0  0  0
   -1.3856    2.4000    0.0000 C   0  0  0  0  0  0  0  0  0  0  0  0
   -2.7712    1.6000    0.0000 C   0  0  0  0  0  0  0  0  0  0  0  0
   -4.1569    2.4000    0.0000 H   0  0  0  0  0  0  0  0  0  0  0  0
   -2.7712    0.0000    0.0000 C   0  0  0  0  0  0  0  0  0  0  0  0
   -4.1569   -0.8000    0.0000 H   0  0  0  0  0  0  0  0  0  0  0  0
   -1.3856   -0.8000    0.0000 C   0  0  0  0  0  0  0  0  0  0  0  0
   -1.3856   -2.4000    0.0000 H   0  0  0  0  0  0  0  0  0  0  0  0
    0.0001    0.0000    0.0000 C   0  0  0  0  0  0  0  0  0  0  0  0
    0.0001    1.6000    0.0000 C   0  0  0  0  0  0  0  0  0  0  0  0
    1.3856    2.4000    0.0000 N   0  0  0  0  0  0  0  0  0  0  0  0
    2.7713    1.6000    0.0000 C   0  0  0  0  0  0  0  0  0  0  0  0
    2.7713    0.0000    0.0000 C   0  0  0  0  0  0  0  0  0  0  0  0
    1.3856   -0.8000    0.0000 N   0  0  0  0  0  0  0  0  0  0  0  0
    1.3856   -2.4000    0.0000 H   0  0  0  0  0  0  0  0  0  0  0  0
    4.1569   -0.8000    0.0000 H   0  0  0  0  0  0  0  0  0  0  0  0
    4.1569    2.4000    0.0000 H   0  0  0  0  0  0  0  0  0  0  0  0
  1  2  2  0  0  0  0
  2  3  1  0  0  0  0
  3  4  1  0  0  0  0
  3  5  2  0  0  0  0
  5  6  1  0  0  0  0
  5  7  1  0  0  0  0
  7  8  1  0  0  0  0
  7  9  2  0  0  0  0
  9 10  1  0  0  0  0
 10  2  1  0  0  0  0
 10 11  2  0  0  0  0
 11 12  1  0  0  0  0
 12 13  2  0  0  0  0
 13 14  1  0  0  0  0
 14  9  1  0  0  0  0
 14 15  1  0  0  0  0
 13 16  1  0  0  0  0
 12 17  1  0  0  0  0
M  END
> <CAS>
17056-99-4

> <NAME>
5-Quinoxalinol

> <preferred_name>
PUBCHEM_12522983

> <iupac>
C8H6N2O

> <SMILES>
O=C1C=CC=C2NC=CN=C21

> <Canonical_QSARr>
O=C1C=CC=C2NC=CN=C21

> <InChI_Code_QSARr>
InChI=1S/C8H6N2O/c11-7-3-1-2-6-8(7)10-5-4-9-6/h1-5,9H

> <InChI Key_QSARr>
YDXPVVWMFFHSPT-UHFFFAOYSA-N

> <Salt_Solvent>
?

> <WS Temperature>
20

> <WS Reference>
BEILSTEIN

> <dsstox_substance_id>
DTXSID70501256

> <LogMolar>
-1.3468

$$$$
17199-14-3
  -INDIGO-01081615412D

 22 21  0  0  0  0  0  0  0  0999 V2000
    1.3856    0.8000    0.0000 C   0  0  0  0  0  0  0  0  0  0  0  0
   -0.0000    0.0000    0.0000 C   0  0  0  0  0  0  0  0  0  0  0  0
   -0.8000    1.3856    0.0000 N   0  0  0  0  0  0  0  0  0  0  0  0
   -2.3999    1.3856    0.0000 C   0  0  0  0  0  0  0  0  0  0  0  0
   -4.0000    1.3856    0.0000 C   0  0  0  0  0  0  0  0  0  0  0  0
   -5.6000    1.3856    0.0000 H   0  0  0  0  0  0  0  0  0  0  0  0
   -4.8000    2.7713    0.0000 H   0  0  0  0  0  0  0  0  0  0  0  0
   -4.8000    0.0000    0.0000 H   0  0  0  0  0  0  0  0  0  0  0  0
   -2.3999    2.9856    0.0000 H   0  0  0  0  0  0  0  0  0  0  0  0
   -2.3999   -0.2143    0.0000 H   0  0  0  0  0  0  0  0  0  0  0  0
   -0.0000    2.7713    0.0000 H   0  0  0  0  0  0  0  0  0  0  0  0
    0.5473   -1.5035    0.0000 C   0  0  0  0  0  0  0  0  0  0  0  0
    1.0944   -3.0070    0.0000 C   0  0  0  0  0  0  0  0  0  0  0  0
    1.6417   -4.5105    0.0000 H   0  0  0  0  0  0  0  0  0  0  0  0
    0.0660   -4.2327    0.0000 H   0  0  0  0  0  0  0  0  0  0  0  0
    2.6701   -3.2849    0.0000 H   0  0  0  0  0  0  0  0  0  0  0  0
   -0.9563   -2.0507    0.0000 H   0  0  0  0  0  0  0  0  0  0  0  0
    2.0508   -0.9563    0.0000 H   0  0  0  0  0  0  0  0  0  0  0  0
   -1.3857   -0.8000    0.0000 H   0  0  0  0  0  0  0  0  0  0  0  0
    1.3856    2.3999    0.0000 O   0  0  0  0  0  0  0  0  0  0  0  0
    2.7713    3.2000    0.0000 H   0  0  0  0  0  0  0  0  0  0  0  0
    2.8891    0.2527    0.0000 O   0  0  0  0  0  0  0  0  0  0  0  0
  1  2  1  0  0  0  0
  2  3  1  0  0  0  0
  3  4  1  0  0  0  0
  4  5  1  0  0  0  0
  5  6  1  0  0  0  0
  5  7  1  0  0  0  0
  5  8  1  0  0  0  0
  4  9  1  0  0  0  0
  4 10  1  0  0  0  0
  3 11  1  0  0  0  0
  2 12  1  0  0  0  0
 12 13  1  0  0  0  0
 13 14  1  0  0  0  0
 13 15  1  0  0  0  0
 13 16  1  0  0  0  0
 12 17  1  0  0  0  0
 12 18  1  0  0  0  0
  2 19  1  0  0  0  0
  1 20  1  0  0  0  0
 20 21  1  0  0  0  0
  1 22  2  0  0  0  0
M  END
> <CAS>
17199-14-3

> <NAME>
Butanoic acid, 2-(ethylamino)-

> <preferred_name>


> <iupac>


> <SMILES>
CCC(NCC)C(O)=O

> <Canonical_QSARr>
CCC(NCC)C(O)=O

> <InChI_Code_QSARr>
InChI=1S/C6H13NO2/c1-3-5(6(8)9)7-4-2/h5,7H,3-4H2,1-2H3,(H,8,9)

> <InChI Key_QSARr>
PRXQQZUWYABUCX-UHFFFAOYSA-N

> <Salt_Solvent>
?

> <WS Temperature>


> <WS Reference>
BEILSTEIN

> <dsstox_substance_id>


> <LogMolar>
-0.4189

$$$$
17360-11-1
  -INDIGO-01081615412D

 28 28  0  0  0  0  0  0  0  0999 V2000
    3.1757    0.2779    0.0000 C   0  0  0  0  0  0  0  0  0  0  0  0
    3.7229    1.7813    0.0000 O   0  0  0  0  0  0  0  0  0  0  0  0
    5.2986    2.0591    0.0000 H   0  0  0  0  0  0  0  0  0  0  0  0
    4.2041   -0.9478    0.0000 O   0  0  0  0  0  0  0  0  0  0  0  0
    1.6000    0.0001    0.0000 C   0  0  0  0  0  0  0  0  0  0  0  0
    1.8779   -1.5757    0.0000 N   0  0  0  0  0  0  0  0  0  0  0  0
    3.3813   -2.1230    0.0000 H   0  0  0  0  0  0  0  0  0  0  0  0
    0.8494   -2.8014    0.0000 H   0  0  0  0  0  0  0  0  0  0  0  0
   -0.0001    0.0001    0.0000 C   0  0  0  0  0  0  0  0  0  0  0  0
   -1.6000    0.0001    0.0000 C   0  0  0  0  0  0  0  0  0  0  0  0
   -2.4000    1.3856    0.0000 C   0  0  0  0  0  0  0  0  0  0  0  0
   -1.6000    2.7713    0.0000 H   0  0  0  0  0  0  0  0  0  0  0  0
   -4.0000    1.3856    0.0000 C   0  0  0  0  0  0  0  0  0  0  0  0
   -4.8000    2.7713    0.0000 N   0  0  0  0  0  0  0  0  0  0  0  0
   -6.3999    2.7713    0.0000 O   0  0  0  0  0  0  0  0  0  0  0  0
   -4.0000    4.1569    0.0000 O   0  0  0  0  0  0  0  0  0  0  0  0
   -4.8000    0.0001    0.0000 C   0  0  0  0  0  0  0  0  0  0  0  0
   -6.3999    0.0001    0.0000 O   0  0  0  0  0  0  0  0  0  0  0  0
   -7.2000    1.3856    0.0000 H   0  0  0  0  0  0  0  0  0  0  0  0
   -4.0000   -1.3856    0.0000 C   0  0  0  0  0  0  0  0  0  0  0  0
   -4.8000   -2.7712    0.0000 N   0  0  0  0  0  0  0  0  0  0  0  0
   -6.3999   -2.7712    0.0000 O   0  0  0  0  0  0  0  0  0  0  0  0
   -4.0000   -4.1569    0.0000 O   0  0  0  0  0  0  0  0  0  0  0  0
   -2.4000   -1.3856    0.0000 C   0  0  0  0  0  0  0  0  0  0  0  0
   -1.6000   -2.7712    0.0000 H   0  0  0  0  0  0  0  0  0  0  0  0
   -0.0001   -1.6000    0.0000 H   0  0  0  0  0  0  0  0  0  0  0  0
   -0.0001    1.6000    0.0000 H   0  0  0  0  0  0  0  0  0  0  0  0
    1.3222    1.5757    0.0000 H   0  0  0  0  0  0  0  0  0  0  0  0
  1  2  1  0  0  0  0
  2  3  1  0  0  0  0
  1  4  2  0  0  0  0
  1  5  1  0  0  0  0
  5  6  1  0  0  0  0
  6  7  1  0  0  0  0
  6  8  1  0  0  0  0
  5  9  1  0  0  0  0
  9 10  1  0  0  0  0
 10 11  4  0  0  0  0
 11 12  1  0  0  0  0
 11 13  4  0  0  0  0
 13 14  1  0  0  0  0
 14 15  2  0  0  0  0
 14 16  1  0  0  0  0
 13 17  4  0  0  0  0
 17 18  1  0  0  0  0
 18 19  1  0  0  0  0
 17 20  4  0  0  0  0
 20 21  1  0  0  0  0
 21 22  2  0  0  0  0
 21 23  1  0  0  0  0
 20 24  4  0  0  0  0
 24 10  4  0  0  0  0
 24 25  1  0  0  0  0
  9 26  1  0  0  0  0
  9 27  1  0  0  0  0
  5 28  1  0  0  0  0
M  CHG  4  14   1  16  -1  21   1  23  -1
M  END
> <CAS>
17360-11-1

> <NAME>
3,5-dinitro-L-tyrosine

> <preferred_name>


> <iupac>


> <SMILES>
N[C@@H](Cc1cc(c(O)c(c1)[N+]([O-])=O)[N+]([O-])=O)C(O)=O

> <Canonical_QSARr>
NC(Cc1cc(c(O)c(c1)[N+]([O-])=O)[N+]([O-])=O)C(O)=O

> <InChI_Code_QSARr>
InChI=1S/C9H9N3O7/c10-5(9(14)15)1-4-2-6(11(16)17)8(13)7(3-4)12(18)19/h2-3,5,13H,1,10H2,(H,14,15)

> <InChI Key_QSARr>
SAZOSDSFLRXREA-UHFFFAOYSA-N

> <Salt_Solvent>
?

> <WS Temperature>


> <WS Reference>
BEILSTEIN

> <dsstox_substance_id>


> <LogMolar>
-1.5125

$$$$
17560-51-9
  -INDIGO-01081615412D

 40 42  0  0  0  0  0  0  0  0999 V2000
    0.0000    1.6000    0.0000 N   0  0  0  0  0  0  0  0  0  0  0  0
   -1.3857    2.4000    0.0000 C   0  0  0  0  0  0  0  0  0  0  0  0
   -2.7714    1.6000    0.0000 C   0  0  0  0  0  0  0  0  0  0  0  0
   -3.0791    0.8251    0.0000 H   0  0  0  0  0  0  0  0  0  0  0  0
   -4.1569    2.4000    0.0000 C   0  0  0  0  0  0  0  0  0  0  0  0
   -5.5426    1.6000    0.0000 H   0  0  0  0  0  0  0  0  0  0  0  0
   -4.1569    4.0000    0.0000 C   0  0  0  0  0  0  0  0  0  0  0  0
   -5.5426    4.8001    0.0000 H   0  0  0  0  0  0  0  0  0  0  0  0
   -2.7714    4.8001    0.0000 C   0  0  0  0  0  0  0  0  0  0  0  0
   -2.7714    6.4000    0.0000 H   0  0  0  0  0  0  0  0  0  0  0  0
   -1.3857    4.0000    0.0000 C   0  0  0  0  0  0  0  0  0  0  0  0
    0.0000    4.8001    0.0000 C   0  0  0  0  0  0  0  0  0  0  0  0
    0.0000    6.4000    0.0000 H   0  0  0  0  0  0  0  0  0  0  0  0
   -1.3857    5.6000    0.0000 H   0  0  0  0  0  0  0  0  0  0  0  0
    1.3857    5.6000    0.0000 H   0  0  0  0  0  0  0  0  0  0  0  0
    0.0000   -0.0000    0.0000 C   0  0  0  0  0  0  0  0  0  0  0  0
   -1.5757    0.2778    0.0000 C   0  0  0  0  0  0  0  0  0  0  0  0
   -2.6042   -0.9479    0.0000 H   0  0  0  0  0  0  0  0  0  0  0  0
   -2.3974    0.1364    0.0000 H   0  0  0  0  0  0  0  0  0  0  0  0
   -1.2978   -1.2978    0.0000 H   0  0  0  0  0  0  0  0  0  0  0  0
   -0.2779   -1.5757    0.0000 H   0  0  0  0  0  0  0  0  0  0  0  0
    1.3857   -0.8001    0.0000 N   0  0  0  0  0  0  0  0  0  0  0  0
    1.3857   -2.4000    0.0000 H   0  0  0  0  0  0  0  0  0  0  0  0
    2.7712   -0.0000    0.0000 C   0  0  0  0  0  0  0  0  0  0  0  0
    4.1569   -0.8001    0.0000 C   0  0  0  0  0  0  0  0  0  0  0  0
    5.5426   -0.0000    0.0000 C   0  0  0  0  0  0  0  0  0  0  0  0
    6.9283   -0.8001    0.0000 Cl  0  0  0  0  0  0  0  0  0  0  0  0
    5.5426    1.6000    0.0000 C   0  0  0  0  0  0  0  0  0  0  0  0
    4.1569    2.4000    0.0000 C   0  0  0  0  0  0  0  0  0  0  0  0
    4.1569    4.0000    0.0000 H   0  0  0  0  0  0  0  0  0  0  0  0
    2.7712    1.6000    0.0000 C   0  0  0  0  0  0  0  0  0  0  0  0
    1.3857    2.4000    0.0000 C   0  0  0  0  0  0  0  0  0  0  0  0
    1.3857    4.0000    0.0000 O   0  0  0  0  0  0  0  0  0  0  0  0
    6.9283    2.4000    0.0000 S   0  0  0  0  0  0  0  0  0  0  0  0
    8.3138    3.2000    0.0000 N   0  0  0  0  0  0  0  0  0  0  0  0
    9.6995    2.4000    0.0000 H   0  0  0  0  0  0  0  0  0  0  0  0
    8.3138    4.8001    0.0000 H   0  0  0  0  0  0  0  0  0  0  0  0
    7.7281    1.0143    0.0000 O   0  0  0  0  0  0  0  0  0  0  0  0
    6.1282    3.7856    0.0000 O   0  0  0  0  0  0  0  0  0  0  0  0
    4.1569   -2.4000    0.0000 H   0  0  0  0  0  0  0  0  0  0  0  0
  1  2  1  0  0  0  0
  2  3  4  0  0  0  0
  3  4  1  0  0  0  0
  3  5  4  0  0  0  0
  5  6  1  0  0  0  0
  5  7  4  0  0  0  0
  7  8  1  0  0  0  0
  7  9  4  0  0  0  0
  9 10  1  0  0  0  0
  9 11  4  0  0  0  0
 11  2  4  0  0  0  0
 11 12  1  0  0  0  0
 12 13  1  0  0  0  0
 12 14  1  0  0  0  0
 12 15  1  0  0  0  0
  1 16  1  0  0  0  0
 16 17  1  0  0  0  0
 17 18  1  0  0  0  0
 17 19  1  0  0  0  0
 17 20  1  0  0  0  0
 16 21  1  0  0  0  0
 16 22  1  0  0  0  0
 22 23  1  0  0  0  0
 22 24  1  0  0  0  0
 24 25  4  0  0  0  0
 25 26  4  0  0  0  0
 26 27  1  0  0  0  0
 26 28  4  0  0  0  0
 28 29  4  0  0  0  0
 29 30  1  0  0  0  0
 29 31  4  0  0  0  0
 31 24  4  0  0  0  0
 31 32  1  0  0  0  0
 32  1  1  0  0  0  0
 32 33  2  0  0  0  0
 28 34  1  0  0  0  0
 34 35  1  0  0  0  0
 35 36  1  0  0  0  0
 35 37  1  0  0  0  0
 34 38  2  0  0  0  0
 34 39  2  0  0  0  0
 25 40  1  0  0  0  0
M  END
> <CAS>
17560-51-9

> <NAME>
Metolazone

> <preferred_name>
Metolazone

> <iupac>
7-chloro-2-methyl-3-(2-methylphenyl)-4-oxo-1,2,3,4-tetrahydroquinazoline-6-sulfonamide

> <SMILES>
Cc1ccccc1N1C(C)Nc2cc(Cl)c(cc2C1=O)S(N)(=O)=O

> <Canonical_QSARr>
Cc1ccccc1N1C(C)Nc2cc(Cl)c(cc2C1=O)S(N)(=O)=O

> <InChI_Code_QSARr>
InChI=1S/C16H16ClN3O3S/c1-9-5-3-4-6-14(9)20-10(2)19-13-8-12(17)15(24(18,22)23)7-11(13)16(20)21/h3-8,10,19H,1-2H3,(H2,18,22,23)

> <InChI Key_QSARr>
AQCHWTWZEMGIFD-UHFFFAOYSA-N

> <Salt_Solvent>
?

> <WS Temperature>
25

> <WS Reference>
YALKOWSKY,SH & DANNENFELSER,RM (1992)

> <dsstox_substance_id>
DTXSID6045167

> <LogMolar>
-3.783

$$$$
17611-82-4
  -INDIGO-01081615412D

 16 15  0  0  0  0  0  0  0  0999 V2000
    0.0001    1.6000    0.0000 C   0  0  0  0  0  0  0  0  0  0  0  0
   -0.0001    3.2000    0.0000 N   0  0  0  0  0  0  0  0  0  0  0  0
    0.0001   -0.0000    0.0000 C   0  0  0  0  0  0  0  0  0  0  0  0
    1.6000   -0.0000    0.0000 C   0  0  0  0  0  0  0  0  0  0  0  0
    3.2001   -0.0000    0.0000 C   0  0  0  0  0  0  0  0  0  0  0  0
    4.8000   -0.0000    0.0000 H   0  0  0  0  0  0  0  0  0  0  0  0
    4.0000   -1.3856    0.0000 H   0  0  0  0  0  0  0  0  0  0  0  0
    4.0000    1.3856    0.0000 H   0  0  0  0  0  0  0  0  0  0  0  0
    1.6000   -1.6000    0.0000 H   0  0  0  0  0  0  0  0  0  0  0  0
    1.6000    1.6000    0.0000 H   0  0  0  0  0  0  0  0  0  0  0  0
   -1.6000   -0.0000    0.0000 C   0  0  0  0  0  0  0  0  0  0  0  0
   -3.1999   -0.0000    0.0000 C   0  0  0  0  0  0  0  0  0  0  0  0
   -4.8000   -0.0000    0.0000 N   0  0  0  0  0  0  0  0  0  0  0  0
   -1.6000   -1.6000    0.0000 H   0  0  0  0  0  0  0  0  0  0  0  0
   -1.6000    1.6000    0.0000 H   0  0  0  0  0  0  0  0  0  0  0  0
    0.0001   -1.6000    0.0000 H   0  0  0  0  0  0  0  0  0  0  0  0
  1  2  3  0  0  0  0
  1  3  1  0  0  0  0
  3  4  1  0  0  0  0
  4  5  1  0  0  0  0
  5  6  1  0  0  0  0
  5  7  1  0  0  0  0
  5  8  1  0  0  0  0
  4  9  1  0  0  0  0
  4 10  1  0  0  0  0
  3 11  1  0  0  0  0
 11 12  1  0  0  0  0
 12 13  3  0  0  0  0
 11 14  1  0  0  0  0
 11 15  1  0  0  0  0
  3 16  1  0  0  0  0
M  END
> <CAS>
17611-82-4

> <NAME>
Butanedinitrile, ethyl-

> <preferred_name>
Butanedinitrile, ethyl-

> <iupac>
2-ethylbutanedinitrile

> <SMILES>
CCC(CC#N)C#N

> <Canonical_QSARr>
CCC(CC#N)C#N

> <InChI_Code_QSARr>
InChI=1S/C6H8N2/c1-2-6(5-8)3-4-7/h6H,2-3H2,1H3

> <InChI Key_QSARr>
GDCJAPJJFZWILF-UHFFFAOYSA-N

> <Salt_Solvent>
?

> <WS Temperature>
23

> <WS Reference>
HPV submission to EPA

> <dsstox_substance_id>
DTXSID8027791

> <LogMolar>
-0.6916

$$$$
17804-35-2
  -INDIGO-01081615412D

 39 40  0  0  0  0  0  0  0  0999 V2000
    6.8212   -0.9247    0.0000 C   0  0  0  0  0  0  0  0  0  0  0  0
    6.8212    0.6753    0.0000 N   0  0  0  0  0  0  0  0  0  0  0  0
    8.2069    1.4753    0.0000 C   0  0  0  0  0  0  0  0  0  0  0  0
    8.2069    3.0753    0.0000 O   0  0  0  0  0  0  0  0  0  0  0  0
    9.5924    3.8753    0.0000 C   0  0  0  0  0  0  0  0  0  0  0  0
   10.9782    4.6753    0.0000 H   0  0  0  0  0  0  0  0  0  0  0  0
    9.5924    5.4753    0.0000 H   0  0  0  0  0  0  0  0  0  0  0  0
   10.9782    3.0753    0.0000 H   0  0  0  0  0  0  0  0  0  0  0  0
    9.5924    0.6753    0.0000 O   0  0  0  0  0  0  0  0  0  0  0  0
    5.4357    1.4753    0.0000 H   0  0  0  0  0  0  0  0  0  0  0  0
    8.1157   -1.8651    0.0000 N   0  0  0  1  0  0  0  0  0  0  0  0
    7.6212   -3.3869    0.0000 C   0  0  0  0  0  0  0  0  0  0  0  0
    8.4212   -4.7725    0.0000 C   0  0  0  0  0  0  0  0  0  0  0  0
    7.6212   -6.1581    0.0000 C   0  0  0  0  0  0  0  0  0  0  0  0
    6.0212   -6.1581    0.0000 C   0  0  0  0  0  0  0  0  0  0  0  0
    5.2213   -4.7725    0.0000 C   0  0  0  0  0  0  0  0  0  0  0  0
    3.6213   -4.7725    0.0000 H   0  0  0  0  0  0  0  0  0  0  0  0
    6.0212   -3.3869    0.0000 C   0  0  0  0  0  0  0  0  0  0  0  0
    5.5269   -1.8651    0.0000 N   0  0  0  1  0  0  0  0  0  0  0  0
    4.0052   -1.3707    0.0000 C   0  0  0  0  0  0  0  0  0  0  0  0
    2.5216   -1.9700    0.0000 N   0  0  0  0  0  0  0  0  0  0  0  0
    1.2609   -0.9851    0.0000 C   0  0  0  0  0  0  0  0  0  0  0  0
    0.0000    0.0001    0.0000 C   0  0  0  0  0  0  0  0  0  0  0  0
   -1.2609    0.9850    0.0000 C   0  0  0  0  0  0  0  0  0  0  0  0
   -2.5215    1.9702    0.0000 C   0  0  0  0  0  0  0  0  0  0  0  0
   -3.7824    2.9551    0.0000 H   0  0  0  0  0  0  0  0  0  0  0  0
   -4.0051    1.3708    0.0000 H   0  0  0  0  0  0  0  0  0  0  0  0
   -2.2989    3.5545    0.0000 H   0  0  0  0  0  0  0  0  0  0  0  0
   -2.2458   -0.2757    0.0000 H   0  0  0  0  0  0  0  0  0  0  0  0
   -0.2757    2.2459    0.0000 H   0  0  0  0  0  0  0  0  0  0  0  0
   -0.9851   -1.2608    0.0000 H   0  0  0  0  0  0  0  0  0  0  0  0
    0.9850    1.2608    0.0000 H   0  0  0  0  0  0  0  0  0  0  0  0
    0.2757   -2.2460    0.0000 H   0  0  0  0  0  0  0  0  0  0  0  0
    2.2459    0.2758    0.0000 H   0  0  0  0  0  0  0  0  0  0  0  0
    2.2989   -3.5545    0.0000 H   0  0  0  0  0  0  0  0  0  0  0  0
    4.2279    0.2136    0.0000 O   0  0  0  0  0  0  0  0  0  0  0  0
    5.2213   -7.5438    0.0000 H   0  0  0  0  0  0  0  0  0  0  0  0
    8.4212   -7.5438    0.0000 H   0  0  0  0  0  0  0  0  0  0  0  0
   10.0213   -4.7725    0.0000 H   0  0  0  0  0  0  0  0  0  0  0  0
  1  2  1  0  0  0  0
  2  3  1  0  0  0  0
  3  4  1  0  0  0  0
  4  5  1  0  0  0  0
  5  6  1  0  0  0  0
  5  7  1  0  0  0  0
  5  8  1  0  0  0  0
  3  9  2  0  0  0  0
  2 10  1  0  0  0  0
  1 11  4  0  0  0  0
 11 12  4  0  0  0  0
 12 13  4  0  0  0  0
 13 14  4  0  0  0  0
 14 15  4  0  0  0  0
 15 16  4  0  0  0  0
 16 17  1  0  0  0  0
 16 18  4  0  0  0  0
 18 12  4  0  0  0  0
 18 19  4  0  0  0  0
 19  1  4  0  0  0  0
 19 20  1  0  0  0  0
 20 21  1  0  0  0  0
 21 22  1  0  0  0  0
 22 23  1  0  0  0  0
 23 24  1  0  0  0  0
 24 25  1  0  0  0  0
 25 26  1  0  0  0  0
 25 27  1  0  0  0  0
 25 28  1  0  0  0  0
 24 29  1  0  0  0  0
 24 30  1  0  0  0  0
 23 31  1  0  0  0  0
 23 32  1  0  0  0  0
 22 33  1  0  0  0  0
 22 34  1  0  0  0  0
 21 35  1  0  0  0  0
 20 36  2  0  0  0  0
 15 37  1  0  0  0  0
 14 38  1  0  0  0  0
 13 39  1  0  0  0  0
M  END
> <CAS>
17804-35-2

> <NAME>
BENOMYL

> <preferred_name>
Benomyl

> <iupac>
methyl [1-(butylcarbamoyl)-1H-benzimidazol-2-yl]carbamate

> <SMILES>
CCCCNC(=O)[n]1c(NC(=O)OC)[n]c2ccccc12

> <Canonical_QSARr>
CCCCNC(=O)[n]1c(NC(=O)OC)[n]c2ccccc12

> <InChI_Code_QSARr>
InChI=1S/C14H18N4O3/c1-3-4-9-15-13(19)18-11-8-6-5-7-10(11)16-12(18)17-14(20)21-2/h5-8H,3-4,9H2,1-2H3,(H,15,19)(H,16,17,20)

> <InChI Key_QSARr>
RIOXQFHNBCKOKP-UHFFFAOYSA-N

> <Salt_Solvent>
?

> <WS Temperature>
20

> <WS Reference>
YALKOWSKY,SH & DANNENFELSER,RM (1992)

> <dsstox_substance_id>
DTXSID5023900

> <LogMolar>
-4.8831

$$$$
18062-89-0
  -INDIGO-01081615412D

 25 26  0  0  0  0  0  0  0  0999 V2000
   -3.2000    2.7713    0.0000 O   0  0  0  0  0  0  0  0  0  0  0  0
   -2.4000    1.3856    0.0000 C   0  0  0  0  0  0  0  0  0  0  0  0
   -3.2000    0.0000    0.0000 C   0  0  0  0  0  0  0  0  0  0  0  0
   -4.8000    0.0000    0.0000 N   0  0  0  0  0  0  0  0  0  0  0  0
   -5.6000   -1.3856    0.0000 O   0  0  0  0  0  0  0  0  0  0  0  0
   -5.6000    1.3856    0.0000 O   0  0  0  0  0  0  0  0  0  0  0  0
   -2.4000   -1.3856    0.0000 C   0  0  0  0  0  0  0  0  0  0  0  0
   -3.2000   -2.7713    0.0000 H   0  0  0  0  0  0  0  0  0  0  0  0
   -0.8000   -1.3856    0.0000 C   0  0  0  0  0  0  0  0  0  0  0  0
    0.0000   -2.7713    0.0000 H   0  0  0  0  0  0  0  0  0  0  0  0
    0.0000    0.0000    0.0000 C   0  0  0  0  0  0  0  0  0  0  0  0
    1.6000    0.0000    0.0000 C   0  0  0  0  0  0  0  0  0  0  0  0
    2.4000   -1.3856    0.0000 C   0  0  0  0  0  0  0  0  0  0  0  0
    1.6000   -2.7713    0.0000 H   0  0  0  0  0  0  0  0  0  0  0  0
    4.0000   -1.3856    0.0000 C   0  0  0  0  0  0  0  0  0  0  0  0
    4.8000   -2.7713    0.0000 H   0  0  0  0  0  0  0  0  0  0  0  0
    4.8000    0.0000    0.0000 C   0  0  0  0  0  0  0  0  0  0  0  0
    6.4000    0.0000    0.0000 H   0  0  0  0  0  0  0  0  0  0  0  0
    4.0000    1.3856    0.0000 C   0  0  0  0  0  0  0  0  0  0  0  0
    4.8000    2.7713    0.0000 H   0  0  0  0  0  0  0  0  0  0  0  0
    2.4000    1.3856    0.0000 C   0  0  0  0  0  0  0  0  0  0  0  0
    1.6000    2.7713    0.0000 H   0  0  0  0  0  0  0  0  0  0  0  0
   -0.8000    1.3856    0.0000 C   0  0  0  0  0  0  0  0  0  0  0  0
    0.0000    2.7713    0.0000 H   0  0  0  0  0  0  0  0  0  0  0  0
   -2.4000    4.1569    0.0000 H   0  0  0  0  0  0  0  0  0  0  0  0
  1  2  1  0  0  0  0
  2  3  4  0  0  0  0
  3  4  1  0  0  0  0
  4  5  2  0  0  0  0
  4  6  1  0  0  0  0
  3  7  4  0  0  0  0
  7  8  1  0  0  0  0
  7  9  4  0  0  0  0
  9 10  1  0  0  0  0
  9 11  4  0  0  0  0
 11 12  1  0  0  0  0
 12 13  4  0  0  0  0
 13 14  1  0  0  0  0
 13 15  4  0  0  0  0
 15 16  1  0  0  0  0
 15 17  4  0  0  0  0
 17 18  1  0  0  0  0
 17 19  4  0  0  0  0
 19 20  1  0  0  0  0
 19 21  4  0  0  0  0
 21 12  4  0  0  0  0
 21 22  1  0  0  0  0
 11 23  4  0  0  0  0
 23  2  4  0  0  0  0
 23 24  1  0  0  0  0
  1 25  1  0  0  0  0
M  CHG  2   4   1   6  -1
M  END
> <CAS>
18062-89-0

> <NAME>
[1,1'-Biphenyl]-3-ol, 4-nitro-

> <preferred_name>
(1,1'-Biphenyl)-3-ol, 4-nitro-

> <iupac>
2-nitro-5-phenylphenol

> <SMILES>
[O-][N+](=O)c1ccc(cc1O)-c1ccccc1

> <Canonical_QSARr>
[O-][N+](=O)c1ccc(cc1O)-c1ccccc1

> <InChI_Code_QSARr>
InChI=1S/C12H9NO3/c14-12-8-10(6-7-11(12)13(15)16)9-4-2-1-3-5-9/h1-8,14H

> <InChI Key_QSARr>
HYPKGPVDQYUOSV-UHFFFAOYSA-N

> <Salt_Solvent>
?

> <WS Temperature>
25

> <WS Reference>
BEILSTEIN

> <dsstox_substance_id>
DTXSID30170987

> <LogMolar>
-3.8557

$$$$
18187-14-9
  -INDIGO-01081615412D

 25 24  0  0  0  0  0  0  0  0999 V2000
    0.0001    0.0000    0.0000 Si  0  0  0  0  0  0  0  0  0  0  0  0
   -1.6000   -0.0000    0.0000 C   0  0  0  0  0  0  0  0  0  0  0  0
   -3.2000   -0.0000    0.0000 H   0  0  0  0  0  0  0  0  0  0  0  0
   -2.4000   -1.3856    0.0000 H   0  0  0  0  0  0  0  0  0  0  0  0
   -2.4000    1.3856    0.0000 H   0  0  0  0  0  0  0  0  0  0  0  0
    0.0001    1.6000    0.0000 C   0  0  0  0  0  0  0  0  0  0  0  0
    0.0001    3.2000    0.0000 H   0  0  0  0  0  0  0  0  0  0  0  0
   -1.3857    2.4000    0.0000 H   0  0  0  0  0  0  0  0  0  0  0  0
    1.2257    2.6285    0.0000 H   0  0  0  0  0  0  0  0  0  0  0  0
    0.0001   -1.6000    0.0000 C   0  0  0  0  0  0  0  0  0  0  0  0
    0.0001   -3.2000    0.0000 H   0  0  0  0  0  0  0  0  0  0  0  0
   -1.3857   -2.4000    0.0000 H   0  0  0  0  0  0  0  0  0  0  0  0
    1.2257   -2.6285    0.0000 H   0  0  0  0  0  0  0  0  0  0  0  0
    1.6000    0.0000    0.0000 C   0  0  0  0  0  0  0  0  0  0  0  0
    3.2000    0.0000    0.0000 C   0  0  0  0  0  0  0  0  0  0  0  0
    4.8001    0.0000    0.0000 C   0  0  0  0  0  0  0  0  0  0  0  0
    6.4000    0.0000    0.0000 N   0  0  0  0  0  0  0  0  0  0  0  0
    7.2000    1.3856    0.0000 H   0  0  0  0  0  0  0  0  0  0  0  0
    7.2000   -1.3856    0.0000 H   0  0  0  0  0  0  0  0  0  0  0  0
    4.8001    1.6000    0.0000 H   0  0  0  0  0  0  0  0  0  0  0  0
    4.8001   -1.6000    0.0000 H   0  0  0  0  0  0  0  0  0  0  0  0
    3.2000   -1.6000    0.0000 H   0  0  0  0  0  0  0  0  0  0  0  0
    3.2000    1.6000    0.0000 H   0  0  0  0  0  0  0  0  0  0  0  0
    1.8779   -1.5757    0.0000 H   0  0  0  0  0  0  0  0  0  0  0  0
    1.6000    1.6000    0.0000 H   0  0  0  0  0  0  0  0  0  0  0  0
  1  2  1  0  0  0  0
  2  3  1  0  0  0  0
  2  4  1  0  0  0  0
  2  5  1  0  0  0  0
  1  6  1  0  0  0  0
  6  7  1  0  0  0  0
  6  8  1  0  0  0  0
  6  9  1  0  0  0  0
  1 10  1  0  0  0  0
 10 11  1  0  0  0  0
 10 12  1  0  0  0  0
 10 13  1  0  0  0  0
  1 14  1  0  0  0  0
 14 15  1  0  0  0  0
 15 16  1  0  0  0  0
 16 17  1  0  0  0  0
 17 18  1  0  0  0  0
 17 19  1  0  0  0  0
 16 20  1  0  0  0  0
 16 21  1  0  0  0  0
 15 22  1  0  0  0  0
 15 23  1  0  0  0  0
 14 24  1  0  0  0  0
 14 25  1  0  0  0  0
M  END
> <CAS>
18187-14-9

> <NAME>
1-Propanamine, 3-(trimethylsilyl)-

> <preferred_name>
1-Propanamine, 3-(trimethylsilyl)- (9CI)

> <iupac>
3-trimethylsilylpropan-1-amine

> <SMILES>
C[Si](C)(C)CCCN

> <Canonical_QSARr>
C[Si](C)(C)CCCN

> <InChI_Code_QSARr>
InChI=1S/C6H17NSi/c1-8(2,3)6-4-5-7/h4-7H2,1-3H3

> <InChI Key_QSARr>
PFRLCKFENIXNMM-UHFFFAOYSA-N

> <Salt_Solvent>
?

> <WS Temperature>
25

> <WS Reference>
BEILSTEIN

> <dsstox_substance_id>
DTXSID50171198

> <LogMolar>
-1.9509

$$$$
18282-51-4
  -INDIGO-01081615412D

 16 16  0  0  0  0  0  0  0  0999 V2000
    4.8000    0.0000    0.0000 I   0  0  0  0  0  0  0  0  0  0  0  0
    3.2001   -0.0000    0.0000 C   0  0  0  0  0  0  0  0  0  0  0  0
    2.4000    1.3856    0.0000 C   0  0  0  0  0  0  0  0  0  0  0  0
    3.2001    2.7713    0.0000 H   0  0  0  0  0  0  0  0  0  0  0  0
    0.8000    1.3856    0.0000 C   0  0  0  0  0  0  0  0  0  0  0  0
    0.0000    2.7713    0.0000 H   0  0  0  0  0  0  0  0  0  0  0  0
    0.0000   -0.0000    0.0000 C   0  0  0  0  0  0  0  0  0  0  0  0
   -1.6000   -0.0000    0.0000 C   0  0  0  0  0  0  0  0  0  0  0  0
   -3.2000   -0.0000    0.0000 O   0  0  0  0  0  0  0  0  0  0  0  0
   -4.0000    1.3856    0.0000 H   0  0  0  0  0  0  0  0  0  0  0  0
   -1.6000    1.6000    0.0000 H   0  0  0  0  0  0  0  0  0  0  0  0
   -1.6000   -1.6000    0.0000 H   0  0  0  0  0  0  0  0  0  0  0  0
    0.8000   -1.3856    0.0000 C   0  0  0  0  0  0  0  0  0  0  0  0
    0.0000   -2.7713    0.0000 H   0  0  0  0  0  0  0  0  0  0  0  0
    2.4000   -1.3856    0.0000 C   0  0  0  0  0  0  0  0  0  0  0  0
    3.2001   -2.7713    0.0000 H   0  0  0  0  0  0  0  0  0  0  0  0
  1  2  1  0  0  0  0
  2  3  4  0  0  0  0
  3  4  1  0  0  0  0
  3  5  4  0  0  0  0
  5  6  1  0  0  0  0
  5  7  4  0  0  0  0
  7  8  1  0  0  0  0
  8  9  1  0  0  0  0
  9 10  1  0  0  0  0
  8 11  1  0  0  0  0
  8 12  1  0  0  0  0
  7 13  4  0  0  0  0
 13 14  1  0  0  0  0
 13 15  4  0  0  0  0
 15  2  4  0  0  0  0
 15 16  1  0  0  0  0
M  END
> <CAS>
18282-51-4

> <NAME>
Benzenemethanol, 4-iodo-

> <preferred_name>
Benzyl alcohol, p-iodo-

> <iupac>
(4-iodophenyl)methanol

> <SMILES>
OCc1ccc(I)cc1

> <Canonical_QSARr>
OCc1ccc(I)cc1

> <InChI_Code_QSARr>
InChI=1S/C7H7IO/c8-7-3-1-6(5-9)2-4-7/h1-4,9H,5H2

> <InChI Key_QSARr>
CNQRHSZYVFYOIE-UHFFFAOYSA-N

> <Salt_Solvent>
?

> <WS Temperature>
20

> <WS Reference>
BEILSTEIN

> <dsstox_substance_id>
DTXSID90171339

> <LogMolar>
-2.746

$$$$
18429-70-4
  -INDIGO-01081615412D

 36 39  0  0  0  0  0  0  0  0999 V2000
   -2.7712    0.0000    0.0000 C   0  0  0  0  0  0  0  0  0  0  0  0
   -4.1569    0.8000    0.0000 C   0  0  0  0  0  0  0  0  0  0  0  0
   -4.1569    2.4000    0.0000 H   0  0  0  0  0  0  0  0  0  0  0  0
   -5.5425    0.0000    0.0000 C   0  0  0  0  0  0  0  0  0  0  0  0
   -6.9282    0.8000    0.0000 C   0  0  0  0  0  0  0  0  0  0  0  0
   -8.3137    0.0000    0.0000 C   0  0  0  0  0  0  0  0  0  0  0  0
   -8.3137   -1.6000    0.0000 C   0  0  0  0  0  0  0  0  0  0  0  0
   -6.9282   -2.4001    0.0000 C   0  0  0  0  0  0  0  0  0  0  0  0
   -6.9282   -4.0000    0.0000 H   0  0  0  0  0  0  0  0  0  0  0  0
   -5.5425   -1.6000    0.0000 C   0  0  0  0  0  0  0  0  0  0  0  0
   -4.1569   -2.4001    0.0000 C   0  0  0  0  0  0  0  0  0  0  0  0
   -4.1569   -4.0000    0.0000 H   0  0  0  0  0  0  0  0  0  0  0  0
   -2.7712   -1.6000    0.0000 C   0  0  0  0  0  0  0  0  0  0  0  0
   -1.3856   -2.4001    0.0000 C   0  0  0  0  0  0  0  0  0  0  0  0
   -1.3856   -4.0000    0.0000 H   0  0  0  0  0  0  0  0  0  0  0  0
    0.0001   -1.6000    0.0000 C   0  0  0  0  0  0  0  0  0  0  0  0
    1.3856   -2.4001    0.0000 C   0  0  0  0  0  0  0  0  0  0  0  0
    2.7714   -3.2000    0.0000 H   0  0  0  0  0  0  0  0  0  0  0  0
    1.3856   -4.0000    0.0000 H   0  0  0  0  0  0  0  0  0  0  0  0
    2.7714   -1.6000    0.0000 H   0  0  0  0  0  0  0  0  0  0  0  0
    0.0001    0.0000    0.0000 C   0  0  0  0  0  0  0  0  0  0  0  0
    1.3856    0.8000    0.0000 C   0  0  0  0  0  0  0  0  0  0  0  0
    2.7714    0.0000    0.0000 C   0  0  0  0  0  0  0  0  0  0  0  0
    4.1569    0.8000    0.0000 H   0  0  0  0  0  0  0  0  0  0  0  0
    4.1569   -0.8000    0.0000 H   0  0  0  0  0  0  0  0  0  0  0  0
    2.7714    1.6000    0.0000 H   0  0  0  0  0  0  0  0  0  0  0  0
    1.3856    2.4000    0.0000 C   0  0  0  0  0  0  0  0  0  0  0  0
    0.0001    3.2001    0.0000 C   0  0  0  0  0  0  0  0  0  0  0  0
   -1.3856    2.4000    0.0000 C   0  0  0  0  0  0  0  0  0  0  0  0
   -2.7712    3.2001    0.0000 H   0  0  0  0  0  0  0  0  0  0  0  0
   -1.3856    0.8000    0.0000 C   0  0  0  0  0  0  0  0  0  0  0  0
    0.0001    4.8000    0.0000 H   0  0  0  0  0  0  0  0  0  0  0  0
    2.7714    3.2001    0.0000 H   0  0  0  0  0  0  0  0  0  0  0  0
   -9.6995   -2.4001    0.0000 H   0  0  0  0  0  0  0  0  0  0  0  0
   -9.6995    0.8000    0.0000 H   0  0  0  0  0  0  0  0  0  0  0  0
   -6.9282    2.4000    0.0000 H   0  0  0  0  0  0  0  0  0  0  0  0
  1  2  4  0  0  0  0
  2  3  1  0  0  0  0
  2  4  4  0  0  0  0
  4  5  4  0  0  0  0
  5  6  4  0  0  0  0
  6  7  4  0  0  0  0
  7  8  4  0  0  0  0
  8  9  1  0  0  0  0
  8 10  4  0  0  0  0
 10  4  4  0  0  0  0
 10 11  4  0  0  0  0
 11 12  1  0  0  0  0
 11 13  4  0  0  0  0
 13  1  4  0  0  0  0
 13 14  4  0  0  0  0
 14 15  1  0  0  0  0
 14 16  4  0  0  0  0
 16 17  1  0  0  0  0
 17 18  1  0  0  0  0
 17 19  1  0  0  0  0
 17 20  1  0  0  0  0
 16 21  4  0  0  0  0
 21 22  4  0  0  0  0
 22 23  1  0  0  0  0
 23 24  1  0  0  0  0
 23 25  1  0  0  0  0
 23 26  1  0  0  0  0
 22 27  4  0  0  0  0
 27 28  4  0  0  0  0
 28 29  4  0  0  0  0
 29 30  1  0  0  0  0
 29 31  4  0  0  0  0
 31  1  4  0  0  0  0
 31 21  4  0  0  0  0
 28 32  1  0  0  0  0
 27 33  1  0  0  0  0
  7 34  1  0  0  0  0
  6 35  1  0  0  0  0
  5 36  1  0  0  0  0
M  END
> <CAS>
18429-70-4

> <NAME>
BENZ(A)ANTHRACENE-4,5-DIMETHYLENE

> <preferred_name>
Benz(a)anthracene, 4,5-dimethyl-

> <iupac>
4,5-dimethylbenzo[a]anthracene

> <SMILES>
Cc1cc2cc3ccccc3cc2c2cccc(C)c12

> <Canonical_QSARr>
Cc1cc2cc3ccccc3cc2c2cccc(C)c12

> <InChI_Code_QSARr>
InChI=1S/C20H16/c1-13-6-5-9-18-19-12-16-8-4-3-7-15(16)11-17(19)10-14(2)20(13)18/h3-12H,1-2H3

> <InChI Key_QSARr>
XVSYIHPFNPQXRA-UHFFFAOYSA-N

> <Salt_Solvent>
?

> <WS Temperature>
25

> <WS Reference>
PEARLMAN,RS ET AL. (1984)

> <dsstox_substance_id>
DTXSID50171552

> <LogMolar>
-7.9743

$$$$
18542-39-7
  -INDIGO-01081615412D

 17 16  0  0  0  0  0  0  0  0999 V2000
   -0.0001    0.0000    0.0000 C   0  0  0  0  0  0  0  0  0  0  0  0
   -1.6000    0.0000    0.0000 S   0  0  0  0  0  0  0  0  0  0  0  0
   -2.4000   -1.3857    0.0000 S   0  0  0  0  0  0  0  0  0  0  0  0
   -3.9999   -1.3857    0.0000 C   0  0  0  0  0  0  0  0  0  0  0  0
   -5.6000   -1.3857    0.0000 C   0  0  0  0  0  0  0  0  0  0  0  0
   -7.2000   -1.3857    0.0000 H   0  0  0  0  0  0  0  0  0  0  0  0
   -6.4000   -2.7713    0.0000 H   0  0  0  0  0  0  0  0  0  0  0  0
   -6.4000    0.0000    0.0000 H   0  0  0  0  0  0  0  0  0  0  0  0
   -3.9999   -2.9856    0.0000 H   0  0  0  0  0  0  0  0  0  0  0  0
   -3.9999    0.2143    0.0000 H   0  0  0  0  0  0  0  0  0  0  0  0
   -2.4000    1.3857    0.0000 O   0  0  0  0  0  0  0  0  0  0  0  0
    1.6000    0.0000    0.0000 C   0  0  0  0  0  0  0  0  0  0  0  0
    3.2000    0.0000    0.0000 H   0  0  0  0  0  0  0  0  0  0  0  0
    2.4000   -1.3857    0.0000 H   0  0  0  0  0  0  0  0  0  0  0  0
    2.4000    1.3857    0.0000 H   0  0  0  0  0  0  0  0  0  0  0  0
   -0.0001    1.6000    0.0000 H   0  0  0  0  0  0  0  0  0  0  0  0
   -0.0001   -1.6000    0.0000 H   0  0  0  0  0  0  0  0  0  0  0  0
  1  2  1  0  0  0  0
  2  3  1  0  0  0  0
  3  4  1  0  0  0  0
  4  5  1  0  0  0  0
  5  6  1  0  0  0  0
  5  7  1  0  0  0  0
  5  8  1  0  0  0  0
  4  9  1  0  0  0  0
  4 10  1  0  0  0  0
  2 11  2  0  0  0  0
  1 12  1  0  0  0  0
 12 13  1  0  0  0  0
 12 14  1  0  0  0  0
 12 15  1  0  0  0  0
  1 16  1  0  0  0  0
  1 17  1  0  0  0  0
M  END
> <CAS>
18542-39-7

> <NAME>
Ethanesulfinothioic acid, S-ethyl ester

> <preferred_name>


> <iupac>


> <SMILES>
CCS(=O)SCC

> <Canonical_QSARr>
CCS(=O)SCC

> <InChI_Code_QSARr>
InChI=1S/C4H10OS2/c1-3-6-7(5)4-2/h3-4H2,1-2H3

> <InChI Key_QSARr>
FIWQKOIUXFENIV-UHFFFAOYSA-N

> <Salt_Solvent>
?

> <WS Temperature>


> <WS Reference>
BEILSTEIN

> <dsstox_substance_id>


> <LogMolar>
-0.0993

$$$$
18691-97-9
  -INDIGO-01081615412D

 26 27  0  0  0  0  0  0  0  0999 V2000
   -1.6000    0.0000    0.0000 C   0  0  0  0  0  0  0  0  0  0  0  0
   -2.5404   -1.2944    0.0000 S   0  0  0  1  0  0  0  0  0  0  0  0
   -4.0621   -0.8000    0.0000 C   0  0  0  0  0  0  0  0  0  0  0  0
   -5.4478   -1.6000    0.0000 C   0  0  0  0  0  0  0  0  0  0  0  0
   -6.8334   -0.8000    0.0000 C   0  0  0  0  0  0  0  0  0  0  0  0
   -6.8334    0.8000    0.0000 C   0  0  0  0  0  0  0  0  0  0  0  0
   -5.4478    1.6000    0.0000 C   0  0  0  0  0  0  0  0  0  0  0  0
   -5.4478    3.2000    0.0000 H   0  0  0  0  0  0  0  0  0  0  0  0
   -4.0621    0.8000    0.0000 C   0  0  0  0  0  0  0  0  0  0  0  0
   -2.5404    1.2944    0.0000 N   0  0  0  1  0  0  0  0  0  0  0  0
   -8.2191    1.6000    0.0000 H   0  0  0  0  0  0  0  0  0  0  0  0
   -8.2191   -1.6000    0.0000 H   0  0  0  0  0  0  0  0  0  0  0  0
   -5.4478   -3.2000    0.0000 H   0  0  0  0  0  0  0  0  0  0  0  0
    0.0000    0.0000    0.0000 N   0  0  0  0  0  0  0  0  0  0  0  0
    0.8000    1.3857    0.0000 C   0  0  0  0  0  0  0  0  0  0  0  0
    1.6000    2.7713    0.0000 H   0  0  0  0  0  0  0  0  0  0  0  0
    2.4000    1.3857    0.0000 H   0  0  0  0  0  0  0  0  0  0  0  0
    0.0000    2.7713    0.0000 H   0  0  0  0  0  0  0  0  0  0  0  0
    0.8000   -1.3857    0.0000 C   0  0  0  0  0  0  0  0  0  0  0  0
    2.4000   -1.3857    0.0000 N   0  0  0  0  0  0  0  0  0  0  0  0
    3.2000   -2.7713    0.0000 C   0  0  0  0  0  0  0  0  0  0  0  0
    4.0000   -4.1569    0.0000 H   0  0  0  0  0  0  0  0  0  0  0  0
    4.8000   -2.7713    0.0000 H   0  0  0  0  0  0  0  0  0  0  0  0
    2.4000   -4.1569    0.0000 H   0  0  0  0  0  0  0  0  0  0  0  0
    3.2000    0.0000    0.0000 H   0  0  0  0  0  0  0  0  0  0  0  0
    0.0000   -2.7713    0.0000 O   0  0  0  0  0  0  0  0  0  0  0  0
  1  2  4  0  0  0  0
  2  3  4  0  0  0  0
  3  4  4  0  0  0  0
  4  5  4  0  0  0  0
  5  6  4  0  0  0  0
  6  7  4  0  0  0  0
  7  8  1  0  0  0  0
  7  9  4  0  0  0  0
  9  3  4  0  0  0  0
  9 10  4  0  0  0  0
 10  1  4  0  0  0  0
  6 11  1  0  0  0  0
  5 12  1  0  0  0  0
  4 13  1  0  0  0  0
  1 14  1  0  0  0  0
 14 15  1  0  0  0  0
 15 16  1  0  0  0  0
 15 17  1  0  0  0  0
 15 18  1  0  0  0  0
 14 19  1  0  0  0  0
 19 20  1  0  0  0  0
 20 21  1  0  0  0  0
 21 22  1  0  0  0  0
 21 23  1  0  0  0  0
 21 24  1  0  0  0  0
 20 25  1  0  0  0  0
 19 26  2  0  0  0  0
M  END
> <CAS>
18691-97-9

> <NAME>
Methabenzthiazuron

> <preferred_name>
Methabenzthiazuron

> <iupac>
1-(1,3-benzothiazol-2-yl)-1,3-dimethylurea

> <SMILES>
CNC(=O)N(C)c1[n]c2ccccc2[s]1

> <Canonical_QSARr>
CNC(=O)N(C)c1[n]c2ccccc2[s]1

> <InChI_Code_QSARr>
InChI=1S/C10H11N3OS/c1-11-9(14)13(2)10-12-7-5-3-4-6-8(7)15-10/h3-6H,1-2H3,(H,11,14)

> <InChI Key_QSARr>
RRVIAQKBTUQODI-UHFFFAOYSA-N

> <Salt_Solvent>
?

> <WS Temperature>
20

> <WS Reference>
YALKOWSKY,SH & DANNENFELSER,RM (1992)

> <dsstox_substance_id>
DTXSID0037570

> <LogMolar>
-3.5741

$$$$
18720-66-6
  -INDIGO-01081615412D

 27 26  0  0  0  0  0  0  0  0999 V2000
    4.7272   -0.8336    0.0000 C   0  0  0  0  0  0  0  0  0  0  0  0
    3.1514   -0.5557    0.0000 C   0  0  0  0  0  0  0  0  0  0  0  0
    1.5756   -0.2779    0.0000 C   0  0  0  0  0  0  0  0  0  0  0  0
    0.0001   -0.0000    0.0000 C   0  0  0  0  0  0  0  0  0  0  0  0
   -1.6000   -0.0000    0.0000 C   0  0  0  0  0  0  0  0  0  0  0  0
   -3.2000   -0.0000    0.0000 H   0  0  0  0  0  0  0  0  0  0  0  0
   -2.4001   -1.3857    0.0000 H   0  0  0  0  0  0  0  0  0  0  0  0
   -2.4001    1.3856    0.0000 H   0  0  0  0  0  0  0  0  0  0  0  0
    0.0001    1.6000    0.0000 C   0  0  0  0  0  0  0  0  0  0  0  0
    0.0001    3.2000    0.0000 H   0  0  0  0  0  0  0  0  0  0  0  0
   -1.3856    2.4000    0.0000 H   0  0  0  0  0  0  0  0  0  0  0  0
    1.3857    2.4000    0.0000 H   0  0  0  0  0  0  0  0  0  0  0  0
    0.0001   -1.6000    0.0000 H   0  0  0  0  0  0  0  0  0  0  0  0
    1.2979   -1.8535    0.0000 H   0  0  0  0  0  0  0  0  0  0  0  0
    1.8535    1.2979    0.0000 H   0  0  0  0  0  0  0  0  0  0  0  0
    2.8735   -2.1314    0.0000 H   0  0  0  0  0  0  0  0  0  0  0  0
    3.4293    1.0201    0.0000 H   0  0  0  0  0  0  0  0  0  0  0  0
    6.3270   -0.8336    0.0000 C   0  0  0  0  0  0  0  0  0  0  0  0
    7.9270   -0.8336    0.0000 C   0  0  0  0  0  0  0  0  0  0  0  0
    9.5271   -0.8336    0.0000 H   0  0  0  0  0  0  0  0  0  0  0  0
    8.7272    0.5521    0.0000 H   0  0  0  0  0  0  0  0  0  0  0  0
    8.7272   -2.2192    0.0000 H   0  0  0  0  0  0  0  0  0  0  0  0
    6.3270   -2.4335    0.0000 H   0  0  0  0  0  0  0  0  0  0  0  0
    6.3270    0.7665    0.0000 H   0  0  0  0  0  0  0  0  0  0  0  0
    4.4493   -2.4092    0.0000 O   0  0  0  0  0  0  0  0  0  0  0  0
    5.4778   -3.6349    0.0000 H   0  0  0  0  0  0  0  0  0  0  0  0
    5.0049    0.7422    0.0000 H   0  0  0  0  0  0  0  0  0  0  0  0
  1  2  1  0  0  0  0
  2  3  1  0  0  0  0
  3  4  1  0  0  0  0
  4  5  1  0  0  0  0
  5  6  1  0  0  0  0
  5  7  1  0  0  0  0
  5  8  1  0  0  0  0
  4  9  1  0  0  0  0
  9 10  1  0  0  0  0
  9 11  1  0  0  0  0
  9 12  1  0  0  0  0
  4 13  1  0  0  0  0
  3 14  1  0  0  0  0
  3 15  1  0  0  0  0
  2 16  1  0  0  0  0
  2 17  1  0  0  0  0
  1 18  1  0  0  0  0
 18 19  1  0  0  0  0
 19 20  1  0  0  0  0
 19 21  1  0  0  0  0
 19 22  1  0  0  0  0
 18 23  1  0  0  0  0
 18 24  1  0  0  0  0
  1 25  1  0  0  0  0
 25 26  1  0  0  0  0
  1 27  1  0  0  0  0
M  END
> <CAS>
18720-66-6

> <NAME>
Ethylisopentylcarbinol

> <preferred_name>


> <iupac>


> <SMILES>
CC(C)CCC(O)CC

> <Canonical_QSARr>
CC(C)CCC(O)CC

> <InChI_Code_QSARr>
InChI=1S/C8H18O/c1-4-8(9)6-5-7(2)3/h7-9H,4-6H2,1-3H3

> <InChI Key_QSARr>
MNBIBGDICHMQFN-UHFFFAOYSA-N

> <Salt_Solvent>
?

> <WS Temperature>
25

> <WS Reference>
BEILSTEIN

> <dsstox_substance_id>


> <LogMolar>
-1.9272

$$$$
18982-54-2
  -INDIGO-01081615412D

 16 16  0  0  0  0  0  0  0  0999 V2000
   -0.0000    2.7713    0.0000 Br  0  0  0  0  0  0  0  0  0  0  0  0
   -0.8000    1.3856    0.0000 C   0  0  0  0  0  0  0  0  0  0  0  0
   -2.4000    1.3856    0.0000 C   0  0  0  0  0  0  0  0  0  0  0  0
   -3.2001    2.7713    0.0000 H   0  0  0  0  0  0  0  0  0  0  0  0
   -3.2001   -0.0000    0.0000 C   0  0  0  0  0  0  0  0  0  0  0  0
   -4.8000   -0.0000    0.0000 H   0  0  0  0  0  0  0  0  0  0  0  0
   -2.4000   -1.3856    0.0000 C   0  0  0  0  0  0  0  0  0  0  0  0
   -3.2001   -2.7713    0.0000 H   0  0  0  0  0  0  0  0  0  0  0  0
   -0.8000   -1.3856    0.0000 C   0  0  0  0  0  0  0  0  0  0  0  0
   -0.0000   -2.7713    0.0000 H   0  0  0  0  0  0  0  0  0  0  0  0
   -0.0000   -0.0000    0.0000 C   0  0  0  0  0  0  0  0  0  0  0  0
    1.6000    0.0000    0.0000 C   0  0  0  0  0  0  0  0  0  0  0  0
    3.2000    0.0000    0.0000 O   0  0  0  0  0  0  0  0  0  0  0  0
    4.0000    1.3856    0.0000 H   0  0  0  0  0  0  0  0  0  0  0  0
    1.6000   -1.6000    0.0000 H   0  0  0  0  0  0  0  0  0  0  0  0
    1.6000    1.6000    0.0000 H   0  0  0  0  0  0  0  0  0  0  0  0
  1  2  1  0  0  0  0
  2  3  4  0  0  0  0
  3  4  1  0  0  0  0
  3  5  4  0  0  0  0
  5  6  1  0  0  0  0
  5  7  4  0  0  0  0
  7  8  1  0  0  0  0
  7  9  4  0  0  0  0
  9 10  1  0  0  0  0
  9 11  4  0  0  0  0
 11  2  4  0  0  0  0
 11 12  1  0  0  0  0
 12 13  1  0  0  0  0
 13 14  1  0  0  0  0
 12 15  1  0  0  0  0
 12 16  1  0  0  0  0
M  END
> <CAS>
18982-54-2

> <NAME>
Benzenemethanol, 2-bromo-

> <preferred_name>
2-Bromobenzyl alcohol

> <iupac>


> <SMILES>
OCc1ccccc1Br

> <Canonical_QSARr>
OCc1ccccc1Br

> <InChI_Code_QSARr>
InChI=1S/C7H7BrO/c8-7-4-2-1-3-6(7)5-9/h1-4,9H,5H2

> <InChI Key_QSARr>
IOWGHQGLUMEZKG-UHFFFAOYSA-N

> <Salt_Solvent>
?

> <WS Temperature>
20

> <WS Reference>
BEILSTEIN

> <dsstox_substance_id>
DTXSID80172411

> <LogMolar>
-2.158

$$$$
19167-57-8
  -INDIGO-01081615412D

 19 20  0  0  0  0  0  0  0  0999 V2000
    0.0001    1.6000    0.0000 C   0  0  0  0  0  0  0  0  0  0  0  0
   -1.3856    2.4000    0.0000 N   0  0  0  1  0  0  0  0  0  0  0  0
   -2.7713    1.6000    0.0000 C   0  0  0  0  0  0  0  0  0  0  0  0
   -4.1569    2.4000    0.0000 H   0  0  0  0  0  0  0  0  0  0  0  0
   -2.7713    0.0000    0.0000 C   0  0  0  0  0  0  0  0  0  0  0  0
   -4.1569   -0.8000    0.0000 H   0  0  0  0  0  0  0  0  0  0  0  0
   -1.3856   -0.8000    0.0000 N   0  0  0  1  0  0  0  0  0  0  0  0
    0.0001    0.0000    0.0000 C   0  0  0  0  0  0  0  0  0  0  0  0
    1.3857   -0.8000    0.0000 C   0  0  0  0  0  0  0  0  0  0  0  0
    1.3857   -2.4000    0.0000 H   0  0  0  0  0  0  0  0  0  0  0  0
    2.7712    0.0000    0.0000 N   0  0  0  1  0  0  0  0  0  0  0  0
    2.7712    1.6000    0.0000 C   0  0  0  0  0  0  0  0  0  0  0  0
    4.1569    2.4000    0.0000 N   0  0  0  0  0  0  0  0  0  0  0  0
    5.5425    1.6000    0.0000 C   0  0  0  0  0  0  0  0  0  0  0  0
    6.9282    0.8000    0.0000 H   0  0  0  0  0  0  0  0  0  0  0  0
    6.9282    2.4000    0.0000 H   0  0  0  0  0  0  0  0  0  0  0  0
    5.5425    0.0000    0.0000 H   0  0  0  0  0  0  0  0  0  0  0  0
    4.1569    4.0000    0.0000 H   0  0  0  0  0  0  0  0  0  0  0  0
    1.3857    2.4000    0.0000 N   0  0  0  1  0  0  0  0  0  0  0  0
  1  2  4  0  0  0  0
  2  3  4  0  0  0  0
  3  4  1  0  0  0  0
  3  5  4  0  0  0  0
  5  6  1  0  0  0  0
  5  7  4  0  0  0  0
  7  8  4  0  0  0  0
  8  1  4  0  0  0  0
  8  9  4  0  0  0  0
  9 10  1  0  0  0  0
  9 11  4  0  0  0  0
 11 12  4  0  0  0  0
 12 13  1  0  0  0  0
 13 14  1  0  0  0  0
 14 15  1  0  0  0  0
 14 16  1  0  0  0  0
 14 17  1  0  0  0  0
 13 18  1  0  0  0  0
 12 19  4  0  0  0  0
 19  1  4  0  0  0  0
M  END
> <CAS>
19167-57-8

> <NAME>
Pteridine, 2-(methylamino)-

> <preferred_name>


> <iupac>


> <SMILES>
CNc1[n]c2[n]cc[n]c2c[n]1

> <Canonical_QSARr>
CNc1[n]c2[n]cc[n]c2c[n]1

> <InChI_Code_QSARr>
InChI=1S/C7H7N5/c1-8-7-11-4-5-6(12-7)10-3-2-9-5/h2-4H,1H3,(H,8,10,11,12)

> <InChI Key_QSARr>
FCJSISFRKUULPL-UHFFFAOYSA-N

> <Salt_Solvent>
?

> <WS Temperature>
20

> <WS Reference>
BEILSTEIN

> <dsstox_substance_id>


> <LogMolar>
-1.7124

$$$$
19396-06-6
  -INDIGO-01081615412D

 60 61  0  0  0  0  0  0  0  0999 V2000
   -0.0001   -0.0000    0.0000 C   0  0  0  0  0  0  0  0  0  0  0  0
    1.5911   -0.1673    0.0000 C   0  0  0  0  0  0  0  0  0  0  0  0
    3.1824   -0.3344    0.0000 N   0  0  0  0  0  0  0  0  0  0  0  0
    3.8334   -1.7961    0.0000 C   0  0  0  0  0  0  0  0  0  0  0  0
    2.8928   -3.0906    0.0000 O   0  0  0  0  0  0  0  0  0  0  0  0
    5.4243   -1.9634    0.0000 C   0  0  0  0  0  0  0  0  0  0  0  0
    5.2572   -3.5545    0.0000 N   0  0  0  0  0  0  0  0  0  0  0  0
    3.7955   -4.2054    0.0000 H   0  0  0  0  0  0  0  0  0  0  0  0
    6.3686   -4.7055    0.0000 H   0  0  0  0  0  0  0  0  0  0  0  0
    7.0156   -2.1307    0.0000 C   0  0  0  0  0  0  0  0  0  0  0  0
    6.9042   -0.5345    0.0000 O   0  0  0  0  0  0  0  0  0  0  0  0
    8.2307    0.3601    0.0000 H   0  0  0  0  0  0  0  0  0  0  0  0
    8.6069   -2.2980    0.0000 C   0  0  0  0  0  0  0  0  0  0  0  0
    8.4398   -3.8891    0.0000 O   0  0  0  0  0  0  0  0  0  0  0  0
    9.5512   -5.0401    0.0000 H   0  0  0  0  0  0  0  0  0  0  0  0
   10.1982   -2.4651    0.0000 C   0  0  0  0  0  0  0  0  0  0  0  0
   11.7894   -2.6323    0.0000 O   0  0  0  0  0  0  0  0  0  0  0  0
   12.7300   -1.3379    0.0000 C   0  0  0  0  0  0  0  0  0  0  0  0
   14.3210   -1.5052    0.0000 N   0  0  0  0  0  0  0  0  0  0  0  0
   15.2616   -0.2107    0.0000 H   0  0  0  0  0  0  0  0  0  0  0  0
   14.9720   -2.9669    0.0000 H   0  0  0  0  0  0  0  0  0  0  0  0
   12.0790    0.1236    0.0000 O   0  0  0  0  0  0  0  0  0  0  0  0
   10.3099   -4.0613    0.0000 H   0  0  0  0  0  0  0  0  0  0  0  0
   10.3653   -0.8739    0.0000 H   0  0  0  0  0  0  0  0  0  0  0  0
    8.7743   -0.7066    0.0000 H   0  0  0  0  0  0  0  0  0  0  0  0
    6.8485   -3.7218    0.0000 H   0  0  0  0  0  0  0  0  0  0  0  0
    5.5918   -0.3723    0.0000 H   0  0  0  0  0  0  0  0  0  0  0  0
    4.1230    0.9598    0.0000 H   0  0  0  0  0  0  0  0  0  0  0  0
    1.7586    1.4240    0.0000 C   0  0  0  0  0  0  0  0  0  0  0  0
    0.6472    2.5750    0.0000 O   0  0  0  0  0  0  0  0  0  0  0  0
    3.2203    2.0749    0.0000 O   0  0  0  0  0  0  0  0  0  0  0  0
    3.3874    3.6660    0.0000 H   0  0  0  0  0  0  0  0  0  0  0  0
    1.4240   -1.7585    0.0000 H   0  0  0  0  0  0  0  0  0  0  0  0
   -1.5216    0.4944    0.0000 C   0  0  0  0  0  0  0  0  0  0  0  0
   -2.9072    1.2944    0.0000 O   0  0  0  0  0  0  0  0  0  0  0  0
   -2.9072    2.8945    0.0000 H   0  0  0  0  0  0  0  0  0  0  0  0
   -0.8709    1.9561    0.0000 H   0  0  0  0  0  0  0  0  0  0  0  0
   -2.4622   -0.8001    0.0000 C   0  0  0  0  0  0  0  0  0  0  0  0
   -3.6511    0.2707    0.0000 O   0  0  0  0  0  0  0  0  0  0  0  0
   -5.1730   -0.2237    0.0000 H   0  0  0  0  0  0  0  0  0  0  0  0
   -3.6511   -1.8706    0.0000 H   0  0  0  0  0  0  0  0  0  0  0  0
   -1.5216   -2.0945    0.0000 C   0  0  0  0  0  0  0  0  0  0  0  0
   -2.5501   -3.3200    0.0000 N   0  0  0  0  0  0  0  0  0  0  0  0
   -2.0028   -4.8237    0.0000 C   0  0  0  0  0  0  0  0  0  0  0  0
   -0.4273   -5.1014    0.0000 H   0  0  0  0  0  0  0  0  0  0  0  0
   -3.0313   -6.0494    0.0000 C   0  0  0  0  0  0  0  0  0  0  0  0
   -2.4840   -7.5528    0.0000 C   0  0  0  0  0  0  0  0  0  0  0  0
   -1.9371   -9.0563    0.0000 O   0  0  0  0  0  0  0  0  0  0  0  0
   -2.9652  -10.2820    0.0000 H   0  0  0  0  0  0  0  0  0  0  0  0
   -3.9877   -8.1000    0.0000 H   0  0  0  0  0  0  0  0  0  0  0  0
   -0.9807   -7.0056    0.0000 H   0  0  0  0  0  0  0  0  0  0  0  0
   -4.6072   -5.7714    0.0000 C   0  0  0  0  0  0  0  0  0  0  0  0
   -5.6354   -6.9971    0.0000 O   0  0  0  0  0  0  0  0  0  0  0  0
   -5.1542   -4.2680    0.0000 N   0  0  0  0  0  0  0  0  0  0  0  0
   -6.7300   -3.9900    0.0000 H   0  0  0  0  0  0  0  0  0  0  0  0
   -4.1260   -3.0423    0.0000 C   0  0  0  0  0  0  0  0  0  0  0  0
   -4.6730   -1.5388    0.0000 O   0  0  0  0  0  0  0  0  0  0  0  0
   -0.8709   -3.5560    0.0000 H   0  0  0  0  0  0  0  0  0  0  0  0
   -0.0001   -1.5999    0.0000 O   0  0  0  0  0  0  0  0  0  0  0  0
    0.3327    1.5651    0.0000 H   0  0  0  0  0  0  0  0  0  0  0  0
  1  2  1  0  0  0  0
  2  3  1  0  0  0  0
  3  4  1  0  0  0  0
  4  5  2  0  0  0  0
  4  6  1  0  0  0  0
  6  7  1  0  0  0  0
  7  8  1  0  0  0  0
  7  9  1  0  0  0  0
  6 10  1  0  0  0  0
 10 11  1  0  0  0  0
 11 12  1  0  0  0  0
 10 13  1  0  0  0  0
 13 14  1  0  0  0  0
 14 15  1  0  0  0  0
 13 16  1  0  0  0  0
 16 17  1  0  0  0  0
 17 18  1  0  0  0  0
 18 19  1  0  0  0  0
 19 20  1  0  0  0  0
 19 21  1  0  0  0  0
 18 22  2  0  0  0  0
 16 23  1  0  0  0  0
 16 24  1  0  0  0  0
 13 25  1  0  0  0  0
 10 26  1  0  0  0  0
  6 27  1  0  0  0  0
  3 28  1  0  0  0  0
  2 29  1  0  0  0  0
 29 30  2  0  0  0  0
 29 31  1  0  0  0  0
 31 32  1  0  0  0  0
  2 33  1  0  0  0  0
  1 34  1  0  0  0  0
 34 35  1  0  0  0  0
 35 36  1  0  0  0  0
 34 37  1  0  0  0  0
 34 38  1  0  0  0  0
 38 39  1  0  0  0  0
 39 40  1  0  0  0  0
 38 41  1  0  0  0  0
 38 42  1  0  0  0  0
 42 43  1  0  0  0  0
 43 44  1  0  0  0  0
 44 45  1  0  0  0  0
 44 46  2  0  0  0  0
 46 47  1  0  0  0  0
 47 48  1  0  0  0  0
 48 49  1  0  0  0  0
 47 50  1  0  0  0  0
 47 51  1  0  0  0  0
 46 52  1  0  0  0  0
 52 53  2  0  0  0  0
 52 54  1  0  0  0  0
 54 55  1  0  0  0  0
 54 56  1  0  0  0  0
 56 43  1  0  0  0  0
 56 57  2  0  0  0  0
 42 58  1  0  0  0  0
 42 59  1  0  0  0  0
 59  1  1  0  0  0  0
  1 60  1  0  0  0  0
M  END
> <CAS>
19396-06-6

> <NAME>
Polyoxin B

> <preferred_name>
Polyoxin B

> <iupac>
(2S)-{[(2S,3S,4S)-2-amino-5-(carbamoyloxy)-3,4-dihydroxypentanoyl]amino}{(2R,3S,4R,5R)-3,4-dihydroxy-5-[5-(hydroxymethyl)-2,4-dioxo-3,4-dihydro-1(2H)-pyrimidinyl]tetrahydro-2-furanyl}acetic acid

> <SMILES>
NC(=O)OC[C@H](O)[C@@H](O)[C@H](N)C(=O)N[C@H]([C@H]1O[C@H]([C@H](O)[C@@H]1O)N1C=C(CO)C(=O)NC1=O)C(O)=O

> <Canonical_QSARr>
NC(=O)OCC(O)C(O)C(N)C(=O)NC(C1OC(C(O)C1O)N1C=C(CO)C(=O)NC1=O)C(O)=O

> <InChI_Code_QSARr>
InChI=1S/C17H25N5O13/c18-6(8(25)5(24)3-34-16(19)32)13(29)20-7(15(30)31)11-9(26)10(27)14(35-11)22-1-4(2-23)12(28)21-17(22)33/h1,5-11,14,23-27H,2-3,18H2,(H2,19,32)(H,20,29)(H,30,31)(H,21,28,33)

> <InChI Key_QSARr>
YFZNSPMAOIVQRP-UHFFFAOYSA-N

> <Salt_Solvent>
?

> <WS Temperature>
20

> <WS Reference>
SHIU, WY ET AL. (1990)

> <dsstox_substance_id>
DTXSID3058329

> <LogMolar>
0.2946

$$$$
19549-79-2
  -INDIGO-01081615412D

 30 29  0  0  0  0  0  0  0  0999 V2000
   -3.1514   -0.5556    0.0000 C   0  0  0  0  0  0  0  0  0  0  0  0
   -1.5756   -0.2778    0.0000 C   0  0  0  0  0  0  0  0  0  0  0  0
    0.0001   -0.0000    0.0000 C   0  0  0  0  0  0  0  0  0  0  0  0
    0.0001    1.6000    0.0000 C   0  0  0  0  0  0  0  0  0  0  0  0
    0.0001    3.2000    0.0000 H   0  0  0  0  0  0  0  0  0  0  0  0
   -1.3856    2.4001    0.0000 H   0  0  0  0  0  0  0  0  0  0  0  0
    1.3856    2.4001    0.0000 H   0  0  0  0  0  0  0  0  0  0  0  0
    1.5758   -0.2778    0.0000 C   0  0  0  0  0  0  0  0  0  0  0  0
    1.2978   -1.8535    0.0000 O   0  0  0  0  0  0  0  0  0  0  0  0
   -0.0878   -2.6535    0.0000 H   0  0  0  0  0  0  0  0  0  0  0  0
    3.1513   -0.5556    0.0000 C   0  0  0  0  0  0  0  0  0  0  0  0
    2.8736   -2.1314    0.0000 C   0  0  0  0  0  0  0  0  0  0  0  0
    2.5956   -3.7071    0.0000 H   0  0  0  0  0  0  0  0  0  0  0  0
    4.0992   -3.1598    0.0000 H   0  0  0  0  0  0  0  0  0  0  0  0
    4.3771   -1.5841    0.0000 H   0  0  0  0  0  0  0  0  0  0  0  0
    4.7270   -0.2778    0.0000 C   0  0  0  0  0  0  0  0  0  0  0  0
    6.3027   -0.0000    0.0000 C   0  0  0  0  0  0  0  0  0  0  0  0
    7.8785    0.2778    0.0000 H   0  0  0  0  0  0  0  0  0  0  0  0
    7.3312   -1.2256    0.0000 H   0  0  0  0  0  0  0  0  0  0  0  0
    6.8500    1.5035    0.0000 H   0  0  0  0  0  0  0  0  0  0  0  0
    4.4493    1.2978    0.0000 H   0  0  0  0  0  0  0  0  0  0  0  0
    5.5270   -1.6635    0.0000 H   0  0  0  0  0  0  0  0  0  0  0  0
    3.4293    1.0200    0.0000 H   0  0  0  0  0  0  0  0  0  0  0  0
    1.8535    1.2978    0.0000 H   0  0  0  0  0  0  0  0  0  0  0  0
    0.0001   -1.6000    0.0000 H   0  0  0  0  0  0  0  0  0  0  0  0
   -1.2979   -1.8535    0.0000 H   0  0  0  0  0  0  0  0  0  0  0  0
   -1.8536    1.2978    0.0000 H   0  0  0  0  0  0  0  0  0  0  0  0
   -4.7271   -0.8335    0.0000 H   0  0  0  0  0  0  0  0  0  0  0  0
   -3.6986   -2.0592    0.0000 H   0  0  0  0  0  0  0  0  0  0  0  0
   -4.1798    0.6700    0.0000 H   0  0  0  0  0  0  0  0  0  0  0  0
  1  2  1  0  0  0  0
  2  3  1  0  0  0  0
  3  4  1  0  0  0  0
  4  5  1  0  0  0  0
  4  6  1  0  0  0  0
  4  7  1  0  0  0  0
  3  8  1  0  0  0  0
  8  9  1  0  0  0  0
  9 10  1  0  0  0  0
  8 11  1  0  0  0  0
 11 12  1  0  0  0  0
 12 13  1  0  0  0  0
 12 14  1  0  0  0  0
 12 15  1  0  0  0  0
 11 16  1  0  0  0  0
 16 17  1  0  0  0  0
 17 18  1  0  0  0  0
 17 19  1  0  0  0  0
 17 20  1  0  0  0  0
 16 21  1  0  0  0  0
 16 22  1  0  0  0  0
 11 23  1  0  0  0  0
  8 24  1  0  0  0  0
  3 25  1  0  0  0  0
  2 26  1  0  0  0  0
  2 27  1  0  0  0  0
  1 28  1  0  0  0  0
  1 29  1  0  0  0  0
  1 30  1  0  0  0  0
M  END
> <CAS>
19549-79-2

> <NAME>
3,5-DIMETHYL-4-HEPTANOL

> <preferred_name>


> <iupac>


> <SMILES>
CC(CC)C(O)C(C)CC

> <Canonical_QSARr>
CC(CC)C(O)C(C)CC

> <InChI_Code_QSARr>
InChI=1S/C9H20O/c1-5-7(3)9(10)8(4)6-2/h7-10H,5-6H2,1-4H3

> <InChI Key_QSARr>
ZKXITRNXHWEQJU-UHFFFAOYSA-N

> <Salt_Solvent>
?

> <WS Temperature>
25

> <WS Reference>
SUZUKI,T (1991)

> <dsstox_substance_id>


> <LogMolar>
-2.5108

$$$$
19666-30-9
  -INDIGO-01081615412D

 40 41  0  0  0  0  0  0  0  0999 V2000
    4.1236   -0.3710    0.0000 N   0  0  0  0  0  0  0  0  0  0  0  0
    5.5090   -1.1710    0.0000 C   0  0  0  0  0  0  0  0  0  0  0  0
    5.5090   -2.7710    0.0000 C   0  0  0  0  0  0  0  0  0  0  0  0
    4.1236   -3.5711    0.0000 Cl  0  0  0  0  0  0  0  0  0  0  0  0
    6.8947   -3.5711    0.0000 C   0  0  0  0  0  0  0  0  0  0  0  0
    6.8947   -5.1710    0.0000 H   0  0  0  0  0  0  0  0  0  0  0  0
    8.2804   -2.7710    0.0000 C   0  0  0  0  0  0  0  0  0  0  0  0
    9.6660   -3.5711    0.0000 Cl  0  0  0  0  0  0  0  0  0  0  0  0
    8.2804   -1.1710    0.0000 C   0  0  0  0  0  0  0  0  0  0  0  0
    9.6660   -0.3710    0.0000 O   0  0  0  0  0  0  0  0  0  0  0  0
   11.0517   -1.1710    0.0000 C   0  0  0  0  0  0  0  0  0  0  0  0
   12.4373   -1.9710    0.0000 C   0  0  0  0  0  0  0  0  0  0  0  0
   13.8230   -2.7710    0.0000 H   0  0  0  0  0  0  0  0  0  0  0  0
   13.8230   -1.1710    0.0000 H   0  0  0  0  0  0  0  0  0  0  0  0
   12.4373   -3.5711    0.0000 H   0  0  0  0  0  0  0  0  0  0  0  0
   11.8517    0.2147    0.0000 C   0  0  0  0  0  0  0  0  0  0  0  0
   12.6517    1.6002    0.0000 H   0  0  0  0  0  0  0  0  0  0  0  0
   11.0517    1.6002    0.0000 H   0  0  0  0  0  0  0  0  0  0  0  0
   13.4517    0.2147    0.0000 H   0  0  0  0  0  0  0  0  0  0  0  0
   10.2517   -2.5567    0.0000 H   0  0  0  0  0  0  0  0  0  0  0  0
    6.8947   -0.3710    0.0000 C   0  0  0  0  0  0  0  0  0  0  0  0
    6.8947    1.2291    0.0000 H   0  0  0  0  0  0  0  0  0  0  0  0
    3.9563    1.2203    0.0000 C   0  0  0  0  0  0  0  0  0  0  0  0
    5.1452    2.2908    0.0000 O   0  0  0  0  0  0  0  0  0  0  0  0
    2.3913    1.5529    0.0000 O   0  0  0  0  0  0  0  0  0  0  0  0
    1.5913    0.1673    0.0000 C   0  0  0  0  0  0  0  0  0  0  0  0
   -0.0001    0.0000    0.0000 C   0  0  0  0  0  0  0  0  0  0  0  0
   -1.5913   -0.1672    0.0000 C   0  0  0  0  0  0  0  0  0  0  0  0
   -3.1825   -0.3344    0.0000 H   0  0  0  0  0  0  0  0  0  0  0  0
   -2.5317    1.1272    0.0000 H   0  0  0  0  0  0  0  0  0  0  0  0
   -2.2421   -1.6289    0.0000 H   0  0  0  0  0  0  0  0  0  0  0  0
   -0.1672    1.5912    0.0000 C   0  0  0  0  0  0  0  0  0  0  0  0
   -0.3346    3.1825    0.0000 H   0  0  0  0  0  0  0  0  0  0  0  0
   -1.6289    2.2420    0.0000 H   0  0  0  0  0  0  0  0  0  0  0  0
    1.1271    2.5316    0.0000 H   0  0  0  0  0  0  0  0  0  0  0  0
    0.1672   -1.5913    0.0000 C   0  0  0  0  0  0  0  0  0  0  0  0
    0.3346   -3.1824    0.0000 H   0  0  0  0  0  0  0  0  0  0  0  0
   -1.1271   -2.5317    0.0000 H   0  0  0  0  0  0  0  0  0  0  0  0
    1.6289   -2.2420    0.0000 H   0  0  0  0  0  0  0  0  0  0  0  0
    2.6620   -1.0217    0.0000 N   0  0  0  0  0  0  0  0  0  0  0  0
  1  2  1  0  0  0  0
  2  3  4  0  0  0  0
  3  4  1  0  0  0  0
  3  5  4  0  0  0  0
  5  6  1  0  0  0  0
  5  7  4  0  0  0  0
  7  8  1  0  0  0  0
  7  9  4  0  0  0  0
  9 10  1  0  0  0  0
 10 11  1  0  0  0  0
 11 12  1  0  0  0  0
 12 13  1  0  0  0  0
 12 14  1  0  0  0  0
 12 15  1  0  0  0  0
 11 16  1  0  0  0  0
 16 17  1  0  0  0  0
 16 18  1  0  0  0  0
 16 19  1  0  0  0  0
 11 20  1  0  0  0  0
  9 21  4  0  0  0  0
 21  2  4  0  0  0  0
 21 22  1  0  0  0  0
  1 23  1  0  0  0  0
 23 24  2  0  0  0  0
 23 25  1  0  0  0  0
 25 26  1  0  0  0  0
 26 27  1  0  0  0  0
 27 28  1  0  0  0  0
 28 29  1  0  0  0  0
 28 30  1  0  0  0  0
 28 31  1  0  0  0  0
 27 32  1  0  0  0  0
 32 33  1  0  0  0  0
 32 34  1  0  0  0  0
 32 35  1  0  0  0  0
 27 36  1  0  0  0  0
 36 37  1  0  0  0  0
 36 38  1  0  0  0  0
 36 39  1  0  0  0  0
 26 40  2  0  0  0  0
 40  1  1  0  0  0  0
M  END
> <CAS>
19666-30-9

> <NAME>
OXADIAZON

> <preferred_name>
Oxadiazon

> <iupac>
5-tert-butyl-3-[2,4-dichloro-5-(propan-2-yloxy)phenyl]-1,3,4-oxadiazol-2(3H)-one

> <SMILES>
CC(C)Oc1cc(c(Cl)cc1Cl)N1N=C(OC1=O)C(C)(C)C

> <Canonical_QSARr>
CC(C)Oc1cc(c(Cl)cc1Cl)N1N=C(OC1=O)C(C)(C)C

> <InChI_Code_QSARr>
InChI=1S/C15H18Cl2N2O3/c1-8(2)21-12-7-11(9(16)6-10(12)17)19-14(20)22-13(18-19)15(3,4)5/h6-8H,1-5H3

> <InChI Key_QSARr>
CHNUNORXWHYHNE-UHFFFAOYSA-N

> <Salt_Solvent>
?

> <WS Temperature>
24

> <WS Reference>
YALKOWSKY,SH & DANNENFELSER,RM (1992)

> <dsstox_substance_id>
DTXSID3024239

> <LogMolar>
-5.693

$$$$
19794-53-7
  -INDIGO-01081615412D

 17 16  0  0  0  0  0  0  0  0999 V2000
    3.0071    1.0945    0.0000 O   0  0  0  0  0  0  0  0  0  0  0  0
    4.2327    0.0660    0.0000 C   0  0  0  0  0  0  0  0  0  0  0  0
    5.4584   -0.9624    0.0000 H   0  0  0  0  0  0  0  0  0  0  0  0
    5.7362    0.6132    0.0000 H   0  0  0  0  0  0  0  0  0  0  0  0
    3.9549   -1.5097    0.0000 H   0  0  0  0  0  0  0  0  0  0  0  0
    1.5036    0.5472    0.0000 C   0  0  0  0  0  0  0  0  0  0  0  0
    0.0000   -0.0000    0.0000 C   0  0  0  0  0  0  0  0  0  0  0  0
   -1.3856   -0.8000    0.0000 C   0  0  0  0  0  0  0  0  0  0  0  0
   -2.7713   -0.0000    0.0000 O   0  0  0  0  0  0  0  0  0  0  0  0
   -1.3856   -2.4000    0.0000 O   0  0  0  0  0  0  0  0  0  0  0  0
   -2.7713   -3.2000    0.0000 H   0  0  0  0  0  0  0  0  0  0  0  0
   -0.8000    1.3856    0.0000 N   0  0  0  0  0  0  0  0  0  0  0  0
   -2.4000    1.3856    0.0000 H   0  0  0  0  0  0  0  0  0  0  0  0
   -0.2527    2.8891    0.0000 H   0  0  0  0  0  0  0  0  0  0  0  0
    0.8000   -1.3857    0.0000 H   0  0  0  0  0  0  0  0  0  0  0  0
    2.0507   -0.9563    0.0000 H   0  0  0  0  0  0  0  0  0  0  0  0
    0.9562    2.0508    0.0000 H   0  0  0  0  0  0  0  0  0  0  0  0
  1  2  1  0  0  0  0
  2  3  1  0  0  0  0
  2  4  1  0  0  0  0
  2  5  1  0  0  0  0
  1  6  1  0  0  0  0
  6  7  1  0  0  0  0
  7  8  1  0  0  0  0
  8  9  2  0  0  0  0
  8 10  1  0  0  0  0
 10 11  1  0  0  0  0
  7 12  1  0  0  0  0
 12 13  1  0  0  0  0
 12 14  1  0  0  0  0
  7 15  1  0  0  0  0
  6 16  1  0  0  0  0
  6 17  1  0  0  0  0
M  END
> <CAS>
19794-53-7

> <NAME>
DL-Serine, O-methyl-

> <preferred_name>
86118-11-8

> <iupac>
C4H9NO3

> <SMILES>
COC[C@@H](N)C(O)=O

> <Canonical_QSARr>
COCC(N)C(O)=O

> <InChI_Code_QSARr>
InChI=1S/C4H9NO3/c1-8-2-3(5)4(6)7/h3H,2,5H2,1H3,(H,6,7)

> <InChI Key_QSARr>
KNTFCRCCPLEUQZ-UHFFFAOYSA-N

> <Salt_Solvent>
?

> <WS Temperature>
20

> <WS Reference>
BEILSTEIN

> <dsstox_substance_id>
DTXSID20275854

> <LogMolar>
0.6524

$$$$
19961-27-4
  -INDIGO-01081615412D

 19 18  0  0  0  0  0  0  0  0999 V2000
    1.3857    0.8000    0.0000 N   0  0  0  0  0  0  0  0  0  0  0  0
    2.7713    0.0000    0.0000 C   0  0  0  0  0  0  0  0  0  0  0  0
    4.1570   -0.8000    0.0000 C   0  0  0  0  0  0  0  0  0  0  0  0
    5.5426   -1.6000    0.0000 H   0  0  0  0  0  0  0  0  0  0  0  0
    5.5426    0.0000    0.0000 H   0  0  0  0  0  0  0  0  0  0  0  0
    4.1570   -2.4000    0.0000 H   0  0  0  0  0  0  0  0  0  0  0  0
    3.5713    1.3856    0.0000 H   0  0  0  0  0  0  0  0  0  0  0  0
    1.9713   -1.3856    0.0000 H   0  0  0  0  0  0  0  0  0  0  0  0
    0.0000    0.0000    0.0000 C   0  0  0  0  0  0  0  0  0  0  0  0
   -1.3856   -0.8000    0.0000 C   0  0  0  0  0  0  0  0  0  0  0  0
   -2.7713   -1.6000    0.0000 H   0  0  0  0  0  0  0  0  0  0  0  0
   -2.7713    0.0000    0.0000 H   0  0  0  0  0  0  0  0  0  0  0  0
   -1.3857   -2.4000    0.0000 H   0  0  0  0  0  0  0  0  0  0  0  0
   -0.8000    1.3856    0.0000 C   0  0  0  0  0  0  0  0  0  0  0  0
   -1.6000    2.7713    0.0000 H   0  0  0  0  0  0  0  0  0  0  0  0
   -2.4000    1.3856    0.0000 H   0  0  0  0  0  0  0  0  0  0  0  0
    0.0000    2.7713    0.0000 H   0  0  0  0  0  0  0  0  0  0  0  0
    0.8000   -1.3856    0.0000 H   0  0  0  0  0  0  0  0  0  0  0  0
    1.3857    2.4000    0.0000 H   0  0  0  0  0  0  0  0  0  0  0  0
  1  2  1  0  0  0  0
  2  3  1  0  0  0  0
  3  4  1  0  0  0  0
  3  5  1  0  0  0  0
  3  6  1  0  0  0  0
  2  7  1  0  0  0  0
  2  8  1  0  0  0  0
  1  9  1  0  0  0  0
  9 10  1  0  0  0  0
 10 11  1  0  0  0  0
 10 12  1  0  0  0  0
 10 13  1  0  0  0  0
  9 14  1  0  0  0  0
 14 15  1  0  0  0  0
 14 16  1  0  0  0  0
 14 17  1  0  0  0  0
  9 18  1  0  0  0  0
  1 19  1  0  0  0  0
M  END
> <CAS>
19961-27-4

> <NAME>
ETHYL ISOPROPYLAMINE

> <preferred_name>
2-Propanamine, N-ethyl-

> <iupac>
N-ethylpropan-2-amine

> <SMILES>
CCNC(C)C

> <Canonical_QSARr>
CCNC(C)C

> <InChI_Code_QSARr>
InChI=1S/C5H13N/c1-4-6-5(2)3/h5-6H,4H2,1-3H3

> <InChI Key_QSARr>
RIVIDPPYRINTTH-UHFFFAOYSA-N

> <Salt_Solvent>
?

> <WS Temperature>
30

> <WS Reference>
YAWS,CL ET AL. (2001)

> <dsstox_substance_id>
DTXSID4066547

> <LogMolar>
1.0597

$$$$
20049-93-8
  -INDIGO-01081615412D

 35 35  0  0  0  0  0  0  0  0999 V2000
   -5.6795    1.0118    0.0000 C   0  0  0  0  0  0  0  0  0  0  0  0
   -4.2178    0.3611    0.0000 N   0  0  0  0  0  0  0  0  0  0  0  0
   -2.9233    1.3015    0.0000 N   0  0  0  0  0  0  0  0  0  0  0  0
   -1.4615    0.6508    0.0000 C   0  0  0  0  0  0  0  0  0  0  0  0
   -0.0001   -0.0000    0.0000 C   0  0  0  0  0  0  0  0  0  0  0  0
    1.4616   -0.6508    0.0000 C   0  0  0  0  0  0  0  0  0  0  0  0
    2.9233   -1.3016    0.0000 C   0  0  0  0  0  0  0  0  0  0  0  0
    4.3850   -1.9523    0.0000 C   0  0  0  0  0  0  0  0  0  0  0  0
    5.8467   -2.6032    0.0000 H   0  0  0  0  0  0  0  0  0  0  0  0
    4.5522   -3.5436    0.0000 H   0  0  0  0  0  0  0  0  0  0  0  0
    5.6795   -1.0119    0.0000 H   0  0  0  0  0  0  0  0  0  0  0  0
    2.2726   -2.7632    0.0000 H   0  0  0  0  0  0  0  0  0  0  0  0
    3.5740    0.1601    0.0000 H   0  0  0  0  0  0  0  0  0  0  0  0
    0.8109   -2.1124    0.0000 H   0  0  0  0  0  0  0  0  0  0  0  0
    2.1126    0.8109    0.0000 H   0  0  0  0  0  0  0  0  0  0  0  0
   -0.6508   -1.4617    0.0000 H   0  0  0  0  0  0  0  0  0  0  0  0
    0.6509    1.4616    0.0000 H   0  0  0  0  0  0  0  0  0  0  0  0
   -0.8108    2.1125    0.0000 H   0  0  0  0  0  0  0  0  0  0  0  0
   -2.1125   -0.8109    0.0000 H   0  0  0  0  0  0  0  0  0  0  0  0
   -3.0907    2.8928    0.0000 C   0  0  0  0  0  0  0  0  0  0  0  0
   -1.7962    3.8332    0.0000 N   0  0  0  0  0  0  0  0  0  0  0  0
   -1.9634    5.4245    0.0000 H   0  0  0  0  0  0  0  0  0  0  0  0
   -0.3345    3.1825    0.0000 H   0  0  0  0  0  0  0  0  0  0  0  0
   -4.5521    3.5435    0.0000 O   0  0  0  0  0  0  0  0  0  0  0  0
   -6.9740    0.0714    0.0000 C   0  0  0  0  0  0  0  0  0  0  0  0
   -8.4957    0.5659    0.0000 C   0  0  0  0  0  0  0  0  0  0  0  0
   -8.9901    2.0876    0.0000 H   0  0  0  0  0  0  0  0  0  0  0  0
   -9.4360   -0.7286    0.0000 C   0  0  0  0  0  0  0  0  0  0  0  0
  -11.0360   -0.7286    0.0000 H   0  0  0  0  0  0  0  0  0  0  0  0
   -8.4957   -2.0230    0.0000 C   0  0  0  0  0  0  0  0  0  0  0  0
   -8.9901   -3.5447    0.0000 N   0  0  0  0  0  0  0  0  0  0  0  0
   -7.9194   -4.7337    0.0000 O   0  0  0  0  0  0  0  0  0  0  0  0
  -10.5551   -3.8773    0.0000 O   0  0  0  0  0  0  0  0  0  0  0  0
   -6.9740   -1.5285    0.0000 O   0  0  0  0  0  0  0  0  0  0  0  0
   -5.8467    2.6031    0.0000 H   0  0  0  0  0  0  0  0  0  0  0  0
  1  2  2  0  0  0  0
  2  3  1  0  0  0  0
  3  4  1  0  0  0  0
  4  5  1  0  0  0  0
  5  6  1  0  0  0  0
  6  7  1  0  0  0  0
  7  8  1  0  0  0  0
  8  9  1  0  0  0  0
  8 10  1  0  0  0  0
  8 11  1  0  0  0  0
  7 12  1  0  0  0  0
  7 13  1  0  0  0  0
  6 14  1  0  0  0  0
  6 15  1  0  0  0  0
  5 16  1  0  0  0  0
  5 17  1  0  0  0  0
  4 18  1  0  0  0  0
  4 19  1  0  0  0  0
  3 20  1  0  0  0  0
 20 21  1  0  0  0  0
 21 22  1  0  0  0  0
 21 23  1  0  0  0  0
 20 24  2  0  0  0  0
  1 25  1  0  0  0  0
 25 26  4  0  0  0  0
 26 27  1  0  0  0  0
 26 28  4  0  0  0  0
 28 29  1  0  0  0  0
 28 30  4  0  0  0  0
 30 31  1  0  0  0  0
 31 32  2  0  0  0  0
 31 33  1  0  0  0  0
 30 34  4  0  0  0  0
 34 25  4  0  0  0  0
  1 35  1  0  0  0  0
M  CHG  2  31   1  33  -1
M  END
> <CAS>
20049-93-8

> <NAME>
2-Furaldehyde, 5-nitro-, 2-pentylsemicarbazone

> <preferred_name>


> <iupac>


> <SMILES>
CCCCCN(N=Cc1ccc(o1)[N+]([O-])=O)C(N)=O

> <Canonical_QSARr>
CCCCCN(N=Cc1ccc(o1)[N+]([O-])=O)C(N)=O

> <InChI_Code_QSARr>
InChI=1S/C11H16N4O4/c1-2-3-4-7-14(11(12)16)13-8-9-5-6-10(19-9)15(17)18/h5-6,8H,2-4,7H2,1H3,(H2,12,16)/b13-8+

> <InChI Key_QSARr>
WWWBXFHCAYRVDH-MDWZMJQESA-N

> <Salt_Solvent>
?

> <WS Temperature>
25

> <WS Reference>
BEILSTEIN

> <dsstox_substance_id>


> <LogMolar>
-2.8971

$$$$
20301-63-7
  -INDIGO-01081615412D

 29 28  0  0  0  0  0  0  0  0999 V2000
    0.0000   -0.0000    0.0000 S   0  0  0  0  0  0  0  0  0  0  0  0
   -1.6001   -0.0000    0.0000 C   0  0  0  0  0  0  0  0  0  0  0  0
   -3.1999   -0.0000    0.0000 C   0  0  0  0  0  0  0  0  0  0  0  0
   -4.8000   -0.0000    0.0000 H   0  0  0  0  0  0  0  0  0  0  0  0
   -4.0000   -1.3857    0.0000 H   0  0  0  0  0  0  0  0  0  0  0  0
   -4.0000    1.3856    0.0000 H   0  0  0  0  0  0  0  0  0  0  0  0
   -1.6001   -1.6000    0.0000 H   0  0  0  0  0  0  0  0  0  0  0  0
   -1.6001    1.6000    0.0000 H   0  0  0  0  0  0  0  0  0  0  0  0
    1.6001   -0.0000    0.0000 C   0  0  0  0  0  0  0  0  0  0  0  0
    3.1999   -0.0000    0.0000 C   0  0  0  0  0  0  0  0  0  0  0  0
    4.8000   -0.0000    0.0000 S   0  0  0  0  0  0  0  0  0  0  0  0
    5.6000   -1.3857    0.0000 P   0  0  0  0  0  0  0  0  0  0  0  0
    6.4001   -2.7713    0.0000 O   0  0  0  0  0  0  0  0  0  0  0  0
    7.9999   -2.7713    0.0000 C   0  0  0  0  0  0  0  0  0  0  0  0
    9.6000   -2.7713    0.0000 H   0  0  0  0  0  0  0  0  0  0  0  0
    8.8000   -4.1569    0.0000 H   0  0  0  0  0  0  0  0  0  0  0  0
    8.8000   -1.3857    0.0000 H   0  0  0  0  0  0  0  0  0  0  0  0
    6.9857   -0.5857    0.0000 O   0  0  0  0  0  0  0  0  0  0  0  0
    6.9857    1.0144    0.0000 C   0  0  0  0  0  0  0  0  0  0  0  0
    8.3713    1.8143    0.0000 H   0  0  0  0  0  0  0  0  0  0  0  0
    6.9857    2.6144    0.0000 H   0  0  0  0  0  0  0  0  0  0  0  0
    5.6000    1.8143    0.0000 H   0  0  0  0  0  0  0  0  0  0  0  0
    4.2144   -2.1856    0.0000 S   0  0  0  0  0  0  0  0  0  0  0  0
    3.1999    1.6000    0.0000 H   0  0  0  0  0  0  0  0  0  0  0  0
    3.1999   -1.6000    0.0000 H   0  0  0  0  0  0  0  0  0  0  0  0
    1.6001   -1.6000    0.0000 H   0  0  0  0  0  0  0  0  0  0  0  0
    1.6001    1.6000    0.0000 H   0  0  0  0  0  0  0  0  0  0  0  0
    0.0000    1.6000    0.0000 O   0  0  0  0  0  0  0  0  0  0  0  0
    0.0000   -1.6000    0.0000 O   0  0  0  0  0  0  0  0  0  0  0  0
  1  2  1  0  0  0  0
  2  3  1  0  0  0  0
  3  4  1  0  0  0  0
  3  5  1  0  0  0  0
  3  6  1  0  0  0  0
  2  7  1  0  0  0  0
  2  8  1  0  0  0  0
  1  9  1  0  0  0  0
  9 10  1  0  0  0  0
 10 11  1  0  0  0  0
 11 12  1  0  0  0  0
 12 13  1  0  0  0  0
 13 14  1  0  0  0  0
 14 15  1  0  0  0  0
 14 16  1  0  0  0  0
 14 17  1  0  0  0  0
 12 18  1  0  0  0  0
 18 19  1  0  0  0  0
 19 20  1  0  0  0  0
 19 21  1  0  0  0  0
 19 22  1  0  0  0  0
 12 23  2  0  0  0  0
 10 24  1  0  0  0  0
 10 25  1  0  0  0  0
  9 26  1  0  0  0  0
  9 27  1  0  0  0  0
  1 28  2  0  0  0  0
  1 29  2  0  0  0  0
M  END
> <CAS>
20301-63-7

> <NAME>
Phosphorodithioic acid, S-[2-(ethylsulfonyl)ethy

> <preferred_name>
Phosphorodithioic acid, S-(2-(ethylsulfonyl)ethyl) O,O-dimethyl ester

> <iupac>
2-ethylsulfonylethylsulfanyl-dimethoxy-sulfanylidenephosphorane

> <SMILES>
CCS(=O)(=O)CCSP(=S)(OC)OC

> <Canonical_QSARr>
CCS(=O)(=O)CCSP(=S)(OC)OC

> <InChI_Code_QSARr>
InChI=1S/C6H15O4PS3/c1-4-14(7,8)6-5-13-11(12,9-2)10-3/h4-6H2,1-3H3

> <InChI Key_QSARr>
GAXMYYJSILFZLT-UHFFFAOYSA-N

> <Salt_Solvent>
?

> <WS Temperature>


> <WS Reference>
BEILSTEIN

> <dsstox_substance_id>
DTXSID20174191

> <LogMolar>
-2.5415

$$$$
20618-41-1
  -INDIGO-01081615412D

 31 32  0  0  0  0  0  0  0  0999 V2000
   -1.3532   -5.3431    0.0000 O   0  0  0  0  0  0  0  0  0  0  0  0
   -1.0097   -3.7805    0.0000 C   0  0  0  0  0  0  0  0  0  0  0  0
    0.3624   -2.8746    0.0000 C   0  0  0  0  0  0  0  0  0  0  0  0
    1.2078   -4.2329    0.0000 C   0  0  0  0  0  0  0  0  0  0  0  0
    2.0531   -5.5914    0.0000 O   0  0  0  0  0  0  0  0  0  0  0  0
    3.6523   -5.5384    0.0000 H   0  0  0  0  0  0  0  0  0  0  0  0
    2.5661   -3.3876    0.0000 H   0  0  0  0  0  0  0  0  0  0  0  0
   -0.1506   -5.0783    0.0000 H   0  0  0  0  0  0  0  0  0  0  0  0
    1.7430   -2.0659    0.0000 H   0  0  0  0  0  0  0  0  0  0  0  0
   -0.4133   -1.4644    0.0000 C   0  0  0  0  0  0  0  0  0  0  0  0
   -2.1205   -1.4000    0.0000 C   0  0  0  0  0  0  0  0  0  0  0  0
   -3.3506   -2.2744    0.0000 C   0  0  0  0  0  0  0  0  0  0  0  0
   -4.5824   -1.2533    0.0000 H   0  0  0  0  0  0  0  0  0  0  0  0
   -4.2119   -2.8024    0.0000 H   0  0  0  0  0  0  0  0  0  0  0  0
   -1.7739   -2.5465    0.0000 C   0  0  0  0  0  0  0  0  0  0  0  0
   -2.8856   -3.6973    0.0000 C   0  0  0  0  0  0  0  0  0  0  0  0
   -3.9972   -4.8480    0.0000 H   0  0  0  0  0  0  0  0  0  0  0  0
   -2.4449   -5.2354    0.0000 H   0  0  0  0  0  0  0  0  0  0  0  0
   -3.8927   -3.6183    0.0000 H   0  0  0  0  0  0  0  0  0  0  0  0
    0.0001    0.0001    0.0000 C   0  0  0  0  0  0  0  0  0  0  0  0
    1.5849    0.2191    0.0000 C   0  0  0  0  0  0  0  0  0  0  0  0
    3.1699    0.4383    0.0000 H   0  0  0  0  0  0  0  0  0  0  0  0
    2.1876    1.7012    0.0000 H   0  0  0  0  0  0  0  0  0  0  0  0
    0.6027    1.4822    0.0000 H   0  0  0  0  0  0  0  0  0  0  0  0
   -0.8362    1.3641    0.0000 C   0  0  0  0  0  0  0  0  0  0  0  0
   -1.6723    2.7283    0.0000 H   0  0  0  0  0  0  0  0  0  0  0  0
   -0.0728    2.7703    0.0000 H   0  0  0  0  0  0  0  0  0  0  0  0
   -2.4356    1.3222    0.0000 H   0  0  0  0  0  0  0  0  0  0  0  0
   -1.5827    0.1070    0.0000 H   0  0  0  0  0  0  0  0  0  0  0  0
   -3.3963   -0.4344    0.0000 H   0  0  0  0  0  0  0  0  0  0  0  0
    1.1763   -1.2825    0.0000 H   0  0  0  0  0  0  0  0  0  0  0  0
  1  2  2  0  0  0  0
  2  3  1  0  0  0  0
  3  4  1  0  0  0  0
  4  5  1  0  0  0  0
  5  6  1  0  0  0  0
  4  7  1  0  0  0  0
  4  8  1  0  0  0  0
  3  9  1  0  0  0  0
  3 10  1  0  0  0  0
 10 11  1  0  0  0  0
 11 12  1  0  0  0  0
 12 13  1  0  0  0  0
 12 14  1  0  0  0  0
 12 15  1  0  0  0  0
 15  2  1  0  0  0  0
 15 16  1  0  0  0  0
 16 17  1  0  0  0  0
 16 18  1  0  0  0  0
 16 19  1  0  0  0  0
 15 20  1  0  0  0  0
 20 10  1  0  0  0  0
 20 21  1  0  0  0  0
 21 22  1  0  0  0  0
 21 23  1  0  0  0  0
 21 24  1  0  0  0  0
 20 25  1  0  0  0  0
 25 26  1  0  0  0  0
 25 27  1  0  0  0  0
 25 28  1  0  0  0  0
 11 29  1  0  0  0  0
 11 30  1  0  0  0  0
 10 31  1  0  0  0  0
M  END
> <CAS>
20618-41-1

> <NAME>
2-Bornanone, 3-(hydroxymethyl)-

> <preferred_name>
20618-41-1

> <iupac>
C11H18O2

> <SMILES>
CC1(C)C2CCC1(C)C(=O)C2CO

> <Canonical_QSARr>
CC1(C)C2CCC1(C)C(=O)C2CO

> <InChI_Code_QSARr>
InChI=1S/C11H18O2/c1-10(2)8-4-5-11(10,3)9(13)7(8)6-12/h7-8,12H,4-6H2,1-3H3

> <InChI Key_QSARr>
YWQRRMNZXWQQJU-UHFFFAOYSA-N

> <Salt_Solvent>
?

> <WS Temperature>


> <WS Reference>
BEILSTEIN

> <dsstox_substance_id>
DTXSID00297352

> <LogMolar>
-0.215

$$$$
20763-91-1
  -INDIGO-01081615412D

 18 18  0  0  0  0  0  0  0  0999 V2000
   -0.0000    2.7713    0.0000 O   0  0  0  0  0  0  0  0  0  0  0  0
    0.8000    1.3856    0.0000 C   0  0  0  0  0  0  0  0  0  0  0  0
   -0.0000   -0.0000    0.0000 C   0  0  0  0  0  0  0  0  0  0  0  0
   -1.6000   -0.0000    0.0000 C   0  0  0  0  0  0  0  0  0  0  0  0
   -3.2001   -0.0000    0.0000 C   0  0  0  0  0  0  0  0  0  0  0  0
   -4.0000    1.3856    0.0000 O   0  0  0  0  0  0  0  0  0  0  0  0
   -4.0000   -1.3856    0.0000 O   0  0  0  0  0  0  0  0  0  0  0  0
   -5.6000   -1.3856    0.0000 H   0  0  0  0  0  0  0  0  0  0  0  0
   -1.6000   -1.6000    0.0000 H   0  0  0  0  0  0  0  0  0  0  0  0
   -1.6000    1.6000    0.0000 H   0  0  0  0  0  0  0  0  0  0  0  0
    0.8000   -1.3856    0.0000 C   0  0  0  0  0  0  0  0  0  0  0  0
   -0.0000   -2.7713    0.0000 H   0  0  0  0  0  0  0  0  0  0  0  0
    2.4001   -1.3856    0.0000 N   0  0  0  0  0  0  0  0  0  0  0  0
    3.2000   -2.7713    0.0000 H   0  0  0  0  0  0  0  0  0  0  0  0
    3.2000    0.0000    0.0000 C   0  0  0  0  0  0  0  0  0  0  0  0
    4.8000    0.0000    0.0000 O   0  0  0  0  0  0  0  0  0  0  0  0
    2.4001    1.3856    0.0000 N   0  0  0  0  0  0  0  0  0  0  0  0
    3.2000    2.7713    0.0000 H   0  0  0  0  0  0  0  0  0  0  0  0
  1  2  2  0  0  0  0
  2  3  1  0  0  0  0
  3  4  1  0  0  0  0
  4  5  1  0  0  0  0
  5  6  2  0  0  0  0
  5  7  1  0  0  0  0
  7  8  1  0  0  0  0
  4  9  1  0  0  0  0
  4 10  1  0  0  0  0
  3 11  2  0  0  0  0
 11 12  1  0  0  0  0
 11 13  1  0  0  0  0
 13 14  1  0  0  0  0
 13 15  1  0  0  0  0
 15 16  2  0  0  0  0
 15 17  1  0  0  0  0
 17  2  1  0  0  0  0
 17 18  1  0  0  0  0
M  END
> <CAS>
20763-91-1

> <NAME>
5-Pyrimidineacetic acid, 1,2,3,4-tetrahydro-2,4-

> <preferred_name>
Uracil-5-ylacetic acid

> <iupac>
C6H6N2O4

> <SMILES>
OC(=O)CC1=CNC(=O)NC1=O

> <Canonical_QSARr>
OC(=O)CC1=CNC(=O)NC1=O

> <InChI_Code_QSARr>
InChI=1S/C6H6N2O4/c9-4(10)1-3-2-7-6(12)8-5(3)11/h2H,1H2,(H,9,10)(H2,7,8,11,12)

> <InChI Key_QSARr>
ZVGODTQUYAKZMK-UHFFFAOYSA-N

> <Salt_Solvent>
?

> <WS Temperature>
30

> <WS Reference>
BEILSTEIN

> <dsstox_substance_id>
DTXSID50305198

> <LogMolar>
-1.6287

$$$$
20830-75-5
  -INDIGO-01081615412D

119126  0  0  0  0  0  0  0  0999 V2000
    9.2255   -1.0284    0.0000 O   0  0  0  0  0  0  0  0  0  0  0  0
    8.0002    0.0001    0.0000 C   0  0  0  0  0  0  0  0  0  0  0  0
    7.2003    1.3857    0.0000 C   0  0  0  0  0  0  0  0  0  0  0  0
    8.7033    1.9329    0.0000 H   0  0  0  0  0  0  0  0  0  0  0  0
    7.4780    2.9614    0.0000 H   0  0  0  0  0  0  0  0  0  0  0  0
    5.5998    1.3857    0.0000 C   0  0  0  0  0  0  0  0  0  0  0  0
    6.3998    2.7712    0.0000 H   0  0  0  0  0  0  0  0  0  0  0  0
    4.7999    0.0001    0.0000 C   0  0  0  0  0  0  0  0  0  0  0  0
    4.3888   -0.4902    0.0000 C   0  0  0  0  0  0  0  0  0  0  0  0
    4.9358   -1.9938    0.0000 H   0  0  0  0  0  0  0  0  0  0  0  0
    3.9999   -1.3857    0.0000 H   0  0  0  0  0  0  0  0  0  0  0  0
    3.8412    1.0133    0.0000 H   0  0  0  0  0  0  0  0  0  0  0  0
    3.2000    0.0001    0.0000 C   0  0  0  0  0  0  0  0  0  0  0  0
    2.4000    1.3857    0.0000 C   0  0  0  0  0  0  0  0  0  0  0  0
    3.2000    2.7712    0.0000 C   0  0  0  0  0  0  0  0  0  0  0  0
    4.7999    2.7712    0.0000 C   0  0  0  0  0  0  0  0  0  0  0  0
    6.0257    3.7997    0.0000 H   0  0  0  0  0  0  0  0  0  0  0  0
    4.5221    4.3470    0.0000 H   0  0  0  0  0  0  0  0  0  0  0  0
    3.4777    4.3470    0.0000 H   0  0  0  0  0  0  0  0  0  0  0  0
    1.9741    3.7997    0.0000 H   0  0  0  0  0  0  0  0  0  0  0  0
    1.6001    2.7712    0.0000 H   0  0  0  0  0  0  0  0  0  0  0  0
    0.8001    1.3857    0.0000 C   0  0  0  0  0  0  0  0  0  0  0  0
    1.0604    1.9704    0.0000 O   0  0  0  0  0  0  0  0  0  0  0  0
    0.8858    2.7438    0.0000 H   0  0  0  0  0  0  0  0  0  0  0  0
    0.0002    0.0001    0.0000 C   0  0  0  0  0  0  0  0  0  0  0  0
   -0.9405   -1.2944    0.0000 C   0  0  0  0  0  0  0  0  0  0  0  0
   -2.0912   -2.4058    0.0000 H   0  0  0  0  0  0  0  0  0  0  0  0
   -1.1077   -2.8856    0.0000 H   0  0  0  0  0  0  0  0  0  0  0  0
   -1.7325   -1.2586    0.0000 H   0  0  0  0  0  0  0  0  0  0  0  0
   -1.5648    0.3326    0.0000 C   0  0  0  0  0  0  0  0  0  0  0  0
   -3.1652    0.3326    0.0000 C   0  0  0  0  0  0  0  0  0  0  0  0
   -4.1054    1.6271    0.0000 C   0  0  0  0  0  0  0  0  0  0  0  0
   -2.7198    2.4271    0.0000 H   0  0  0  0  0  0  0  0  0  0  0  0
   -4.7561    3.0887    0.0000 H   0  0  0  0  0  0  0  0  0  0  0  0
   -5.6270    1.1327    0.0000 O   0  0  0  0  0  0  0  0  0  0  0  0
   -5.6270   -0.4673    0.0000 C   0  0  0  0  0  0  0  0  0  0  0  0
   -6.9216   -1.4079    0.0000 O   0  0  0  0  0  0  0  0  0  0  0  0
   -4.1054   -0.9619    0.0000 C   0  0  0  0  0  0  0  0  0  0  0  0
   -3.6112   -2.4835    0.0000 H   0  0  0  0  0  0  0  0  0  0  0  0
   -1.7325    1.9240    0.0000 C   0  0  0  0  0  0  0  0  0  0  0  0
   -0.2707    2.5746    0.0000 C   0  0  0  0  0  0  0  0  0  0  0  0
    0.1197    3.2648    0.0000 H   0  0  0  0  0  0  0  0  0  0  0  0
   -1.0707    3.9604    0.0000 H   0  0  0  0  0  0  0  0  0  0  0  0
   -2.2267    3.4456    0.0000 H   0  0  0  0  0  0  0  0  0  0  0  0
   -3.2975    1.5913    0.0000 H   0  0  0  0  0  0  0  0  0  0  0  0
   -2.0489   -0.2954    0.0000 H   0  0  0  0  0  0  0  0  0  0  0  0
    0.8001   -1.3857    0.0000 C   0  0  0  0  0  0  0  0  0  0  0  0
    1.0779   -2.9614    0.0000 O   0  0  0  0  0  0  0  0  0  0  0  0
   -0.1480   -3.9899    0.0000 H   0  0  0  0  0  0  0  0  0  0  0  0
   -0.5855   -2.1856    0.0000 H   0  0  0  0  0  0  0  0  0  0  0  0
    2.4000   -1.3857    0.0000 C   0  0  0  0  0  0  0  0  0  0  0  0
    2.1223   -2.9614    0.0000 H   0  0  0  0  0  0  0  0  0  0  0  0
    3.4285   -2.6112    0.0000 H   0  0  0  0  0  0  0  0  0  0  0  0
    3.1762   -0.9757    0.0000 H   0  0  0  0  0  0  0  0  0  0  0  0
    5.5998   -1.3857    0.0000 C   0  0  0  0  0  0  0  0  0  0  0  0
    5.0528   -2.8892    0.0000 H   0  0  0  0  0  0  0  0  0  0  0  0
    5.8776   -2.9614    0.0000 H   0  0  0  0  0  0  0  0  0  0  0  0
    7.2003   -1.3857    0.0000 C   0  0  0  0  0  0  0  0  0  0  0  0
    6.9220   -2.9614    0.0000 H   0  0  0  0  0  0  0  0  0  0  0  0
    8.7033   -1.9330    0.0000 H   0  0  0  0  0  0  0  0  0  0  0  0
    9.2255    1.0285    0.0000 H   0  0  0  0  0  0  0  0  0  0  0  0
   10.8016   -0.7506    0.0000 C   0  0  0  0  0  0  0  0  0  0  0  0
   10.8016   -2.3507    0.0000 O   0  0  0  0  0  0  0  0  0  0  0  0
   12.1872   -3.1506    0.0000 C   0  0  0  0  0  0  0  0  0  0  0  0
   11.1587   -4.3763    0.0000 C   0  0  0  0  0  0  0  0  0  0  0  0
   10.1302   -5.6020    0.0000 H   0  0  0  0  0  0  0  0  0  0  0  0
   11.7058   -5.8798    0.0000 H   0  0  0  0  0  0  0  0  0  0  0  0
    9.5826   -4.0985    0.0000 H   0  0  0  0  0  0  0  0  0  0  0  0
   13.2152   -4.3763    0.0000 H   0  0  0  0  0  0  0  0  0  0  0  0
   13.5729   -2.3507    0.0000 C   0  0  0  0  0  0  0  0  0  0  0  0
   15.1484   -2.0727    0.0000 O   0  0  0  0  0  0  0  0  0  0  0  0
   16.3743   -3.1013    0.0000 C   0  0  0  0  0  0  0  0  0  0  0  0
   17.1742   -4.4869    0.0000 C   0  0  0  0  0  0  0  0  0  0  0  0
   15.6706   -5.0342    0.0000 H   0  0  0  0  0  0  0  0  0  0  0  0
   17.4520   -6.0626    0.0000 H   0  0  0  0  0  0  0  0  0  0  0  0
   18.7741   -4.4869    0.0000 C   0  0  0  0  0  0  0  0  0  0  0  0
   18.4964   -6.0626    0.0000 O   0  0  0  0  0  0  0  0  0  0  0  0
   19.7217   -7.0911    0.0000 H   0  0  0  0  0  0  0  0  0  0  0  0
   20.2777   -5.0342    0.0000 H   0  0  0  0  0  0  0  0  0  0  0  0
   19.5741   -3.1013    0.0000 C   0  0  0  0  0  0  0  0  0  0  0  0
   20.7999   -4.1298    0.0000 O   0  0  0  0  0  0  0  0  0  0  0  0
   22.3755   -3.8518    0.0000 C   0  0  0  0  0  0  0  0  0  0  0  0
   22.3755   -5.4519    0.0000 O   0  0  0  0  0  0  0  0  0  0  0  0
   23.7611   -6.2518    0.0000 C   0  0  0  0  0  0  0  0  0  0  0  0
   22.7326   -7.4775    0.0000 C   0  0  0  0  0  0  0  0  0  0  0  0
   21.7041   -8.7032    0.0000 H   0  0  0  0  0  0  0  0  0  0  0  0
   23.2797   -8.9810    0.0000 H   0  0  0  0  0  0  0  0  0  0  0  0
   21.1570   -7.1997    0.0000 H   0  0  0  0  0  0  0  0  0  0  0  0
   24.7896   -7.4775    0.0000 H   0  0  0  0  0  0  0  0  0  0  0  0
   25.1467   -5.4519    0.0000 C   0  0  0  0  0  0  0  0  0  0  0  0
   26.7223   -5.1741    0.0000 O   0  0  0  0  0  0  0  0  0  0  0  0
   27.7508   -6.3996    0.0000 H   0  0  0  0  0  0  0  0  0  0  0  0
   25.6938   -6.9555    0.0000 H   0  0  0  0  0  0  0  0  0  0  0  0
   25.1467   -3.8518    0.0000 C   0  0  0  0  0  0  0  0  0  0  0  0
   25.6938   -2.3483    0.0000 O   0  0  0  0  0  0  0  0  0  0  0  0
   27.2694   -2.0704    0.0000 H   0  0  0  0  0  0  0  0  0  0  0  0
   26.7223   -4.1298    0.0000 H   0  0  0  0  0  0  0  0  0  0  0  0
   23.7611   -3.0519    0.0000 C   0  0  0  0  0  0  0  0  0  0  0  0
   24.7896   -1.8262    0.0000 H   0  0  0  0  0  0  0  0  0  0  0  0
   22.7326   -1.8262    0.0000 H   0  0  0  0  0  0  0  0  0  0  0  0
   21.8279   -2.3485    0.0000 H   0  0  0  0  0  0  0  0  0  0  0  0
   20.7999   -2.0727    0.0000 H   0  0  0  0  0  0  0  0  0  0  0  0
   18.7741   -1.7156    0.0000 C   0  0  0  0  0  0  0  0  0  0  0  0
   18.4964   -0.1398    0.0000 C   0  0  0  0  0  0  0  0  0  0  0  0
   18.2181    1.4357    0.0000 H   0  0  0  0  0  0  0  0  0  0  0  0
   19.7217    0.8886    0.0000 H   0  0  0  0  0  0  0  0  0  0  0  0
   16.9928    0.4072    0.0000 H   0  0  0  0  0  0  0  0  0  0  0  0
   20.2777   -1.1683    0.0000 H   0  0  0  0  0  0  0  0  0  0  0  0
   17.1742   -1.7156    0.0000 O   0  0  0  0  0  0  0  0  0  0  0  0
   15.1484   -4.1298    0.0000 H   0  0  0  0  0  0  0  0  0  0  0  0
   14.1199   -3.8542    0.0000 H   0  0  0  0  0  0  0  0  0  0  0  0
   13.5729   -0.7506    0.0000 C   0  0  0  0  0  0  0  0  0  0  0  0
   14.1199    0.7530    0.0000 O   0  0  0  0  0  0  0  0  0  0  0  0
   15.6955    1.0308    0.0000 H   0  0  0  0  0  0  0  0  0  0  0  0
   15.1484   -1.0284    0.0000 H   0  0  0  0  0  0  0  0  0  0  0  0
   12.1872    0.0493    0.0000 C   0  0  0  0  0  0  0  0  0  0  0  0
   13.2152    1.2750    0.0000 H   0  0  0  0  0  0  0  0  0  0  0  0
   11.1587    1.2750    0.0000 H   0  0  0  0  0  0  0  0  0  0  0  0
   10.2540    0.7530    0.0000 H   0  0  0  0  0  0  0  0  0  0  0  0
  1  2  1  0  0  0  0
  2  3  1  0  0  0  0
  3  4  1  0  0  0  0
  3  5  1  0  0  0  0
  3  6  1  0  0  0  0
  6  7  1  0  0  0  0
  6  8  1  0  0  0  0
  8  9  1  0  0  0  0
  9 10  1  0  0  0  0
  9 11  1  0  0  0  0
  9 12  1  0  0  0  0
  8 13  1  0  0  0  0
 13 14  1  0  0  0  0
 14 15  1  0  0  0  0
 15 16  1  0  0  0  0
 16  6  1  0  0  0  0
 16 17  1  0  0  0  0
 16 18  1  0  0  0  0
 15 19  1  0  0  0  0
 15 20  1  0  0  0  0
 14 21  1  0  0  0  0
 14 22  1  0  0  0  0
 22 23  1  0  0  0  0
 23 24  1  0  0  0  0
 22 25  1  0  0  0  0
 25 26  1  0  0  0  0
 26 27  1  0  0  0  0
 26 28  1  0  0  0  0
 26 29  1  0  0  0  0
 25 30  1  0  0  0  0
 30 31  1  0  0  0  0
 31 32  1  0  0  0  0
 32 33  1  0  0  0  0
 32 34  1  0  0  0  0
 32 35  1  0  0  0  0
 35 36  1  0  0  0  0
 36 37  2  0  0  0  0
 36 38  1  0  0  0  0
 38 31  2  0  0  0  0
 38 39  1  0  0  0  0
 30 40  1  0  0  0  0
 40 41  1  0  0  0  0
 41 22  1  0  0  0  0
 41 42  1  0  0  0  0
 41 43  1  0  0  0  0
 40 44  1  0  0  0  0
 40 45  1  0  0  0  0
 30 46  1  0  0  0  0
 25 47  1  0  0  0  0
 47 48  1  0  0  0  0
 48 49  1  0  0  0  0
 47 50  1  0  0  0  0
 47 51  1  0  0  0  0
 51 13  1  0  0  0  0
 51 52  1  0  0  0  0
 51 53  1  0  0  0  0
 13 54  1  0  0  0  0
  8 55  1  0  0  0  0
 55 56  1  0  0  0  0
 55 57  1  0  0  0  0
 55 58  1  0  0  0  0
 58  2  1  0  0  0  0
 58 59  1  0  0  0  0
 58 60  1  0  0  0  0
  2 61  1  0  0  0  0
  1 62  1  0  0  0  0
 62 63  1  0  0  0  0
 63 64  1  0  0  0  0
 64 65  1  0  0  0  0
 65 66  1  0  0  0  0
 65 67  1  0  0  0  0
 65 68  1  0  0  0  0
 64 69  1  0  0  0  0
 64 70  1  0  0  0  0
 70 71  1  0  0  0  0
 71 72  1  0  0  0  0
 72 73  1  0  0  0  0
 73 74  1  0  0  0  0
 73 75  1  0  0  0  0
 73 76  1  0  0  0  0
 76 77  1  0  0  0  0
 77 78  1  0  0  0  0
 76 79  1  0  0  0  0
 76 80  1  0  0  0  0
 80 81  1  0  0  0  0
 81 82  1  0  0  0  0
 82 83  1  0  0  0  0
 83 84  1  0  0  0  0
 84 85  1  0  0  0  0
 85 86  1  0  0  0  0
 85 87  1  0  0  0  0
 85 88  1  0  0  0  0
 84 89  1  0  0  0  0
 84 90  1  0  0  0  0
 90 91  1  0  0  0  0
 91 92  1  0  0  0  0
 90 93  1  0  0  0  0
 90 94  1  0  0  0  0
 94 95  1  0  0  0  0
 95 96  1  0  0  0  0
 94 97  1  0  0  0  0
 94 98  1  0  0  0  0
 98 82  1  0  0  0  0
 98 99  1  0  0  0  0
 98100  1  0  0  0  0
 82101  1  0  0  0  0
 80102  1  0  0  0  0
 80103  1  0  0  0  0
103104  1  0  0  0  0
104105  1  0  0  0  0
104106  1  0  0  0  0
104107  1  0  0  0  0
103108  1  0  0  0  0
103109  1  0  0  0  0
109 72  1  0  0  0  0
 72110  1  0  0  0  0
 70111  1  0  0  0  0
 70112  1  0  0  0  0
112113  1  0  0  0  0
113114  1  0  0  0  0
112115  1  0  0  0  0
112116  1  0  0  0  0
116 62  1  0  0  0  0
116117  1  0  0  0  0
116118  1  0  0  0  0
 62119  1  0  0  0  0
M  END
> <CAS>
20830-75-5

> <NAME>
DIGOXIN

> <preferred_name>
Digoxin

> <iupac>
(3beta,5beta,12beta)-3-{[2,6-dideoxy-beta-D-ribo-hexopyranosyl-(1->4)-2,6-dideoxy-beta-D-ribo-hexopyranosyl-(1->4)-2,6-dideoxy-beta-D-ribo-hexopyranosyl]oxy}-12,14-dihydroxycard-20(22)-enolide

> <SMILES>
C[C@]12CC[C@@H](C[C@H]1CC[C@@H]1[C@@H]2C[C@@H](O)[C@]2(C)[C@H](CC[C@@]21O)C1COC(=O)C=1)O[C@H]1C[C@H](O)[C@H](O[C@H]2C[C@H](O)[C@H](O[C@H]3C[C@H](O)[C@H](O)[C@@H](C)O3)[C@@H](C)O2)[C@@H](C)O1

> <Canonical_QSARr>
CC12CCC(CC1CCC1C2CC(O)C2(C)C(CCC21O)C1COC(=O)C=1)OC1CC(O)C(OC2CC(O)C(OC3CC(O)C(O)C(C)O3)C(C)O2)C(C)O1

> <InChI_Code_QSARr>
InChI=1S/C41H64O14/c1-19-36(47)28(42)15-34(50-19)54-38-21(3)52-35(17-30(38)44)55-37-20(2)51-33(16-29(37)43)53-24-8-10-39(4)23(13-24)6-7-26-27(39)14-31(45)40(5)25(9-11-41(26,40)48)22-12-32(46)49-18-22/h12,19-21,23-31,33-38,42-45,47-48H,6-11,13-18H2,1-5H3

> <InChI Key_QSARr>
LTMHDMANZUZIPE-UHFFFAOYSA-N

> <Salt_Solvent>
?

> <WS Temperature>
25

> <WS Reference>
YALKOWSKY,SH & DANNENFELSER,RM (1992)

> <dsstox_substance_id>
DTXSID5022934

> <LogMolar>
-4.0811

$$$$
20939-13-3
  -INDIGO-01081615412D

 17 16  0  0  0  0  0  0  0  0999 V2000
    2.7712    0.0000    0.0000 C   0  0  0  0  0  0  0  0  0  0  0  0
    4.1569   -0.8000    0.0000 N   0  0  0  0  0  0  0  0  0  0  0  0
    5.5426    0.0000    0.0000 H   0  0  0  0  0  0  0  0  0  0  0  0
    4.1569   -2.4000    0.0000 H   0  0  0  0  0  0  0  0  0  0  0  0
    1.3856   -0.8000    0.0000 N   0  0  0  0  0  0  0  0  0  0  0  0
    0.0001    0.0000    0.0000 C   0  0  0  0  0  0  0  0  0  0  0  0
   -1.3856    0.8000    0.0000 N   0  0  0  0  0  0  0  0  0  0  0  0
   -2.7712   -0.0000    0.0000 C   0  0  0  0  0  0  0  0  0  0  0  0
   -4.1569    0.8000    0.0000 N   0  0  0  0  0  0  0  0  0  0  0  0
   -5.5426   -0.0000    0.0000 H   0  0  0  0  0  0  0  0  0  0  0  0
   -4.1569    2.4000    0.0000 H   0  0  0  0  0  0  0  0  0  0  0  0
   -2.7712   -1.6000    0.0000 S   0  0  0  0  0  0  0  0  0  0  0  0
   -1.3856    2.4000    0.0000 H   0  0  0  0  0  0  0  0  0  0  0  0
    0.8000    1.3857    0.0000 H   0  0  0  0  0  0  0  0  0  0  0  0
   -0.8000   -1.3857    0.0000 H   0  0  0  0  0  0  0  0  0  0  0  0
    1.3856   -2.4000    0.0000 H   0  0  0  0  0  0  0  0  0  0  0  0
    2.7712    1.6000    0.0000 S   0  0  0  0  0  0  0  0  0  0  0  0
  1  2  1  0  0  0  0
  2  3  1  0  0  0  0
  2  4  1  0  0  0  0
  1  5  1  0  0  0  0
  5  6  1  0  0  0  0
  6  7  1  0  0  0  0
  7  8  1  0  0  0  0
  8  9  1  0  0  0  0
  9 10  1  0  0  0  0
  9 11  1  0  0  0  0
  8 12  2  0  0  0  0
  7 13  1  0  0  0  0
  6 14  1  0  0  0  0
  6 15  1  0  0  0  0
  5 16  1  0  0  0  0
  1 17  2  0  0  0  0
M  END
> <CAS>
20939-13-3

> <NAME>
Thiourea, N,N''-methylenebis-

> <preferred_name>


> <iupac>


> <SMILES>
NC(=S)NCNC(N)=S

> <Canonical_QSARr>
NC(=S)NCNC(N)=S

> <InChI_Code_QSARr>
InChI=1S/C3H8N4S2/c4-2(8)6-1-7-3(5)9/h1H2,(H3,4,6,8)(H3,5,7,9)

> <InChI Key_QSARr>
FYRGTSQBIJSGKL-UHFFFAOYSA-N

> <Salt_Solvent>
?

> <WS Temperature>
21

> <WS Reference>
BEILSTEIN

> <dsstox_substance_id>


> <LogMolar>
-1.6714

$$$$
21161-11-5
  -INDIGO-01081615412D

 20 20  0  0  0  0  0  0  0  0999 V2000
   -4.0000    1.3856    0.0000 O   0  0  0  0  0  0  0  0  0  0  0  0
   -2.4000    1.3856    0.0000 C   0  0  0  0  0  0  0  0  0  0  0  0
   -1.6000    0.0000    0.0000 C   0  0  0  0  0  0  0  0  0  0  0  0
   -2.4000   -1.3856    0.0000 C   0  0  0  0  0  0  0  0  0  0  0  0
   -4.0000   -1.3856    0.0000 H   0  0  0  0  0  0  0  0  0  0  0  0
   -1.6000   -2.7713    0.0000 C   0  0  0  0  0  0  0  0  0  0  0  0
   -2.4000   -4.1569    0.0000 H   0  0  0  0  0  0  0  0  0  0  0  0
    0.0001   -2.7713    0.0000 C   0  0  0  0  0  0  0  0  0  0  0  0
    0.8000   -4.1569    0.0000 H   0  0  0  0  0  0  0  0  0  0  0  0
    0.8000   -1.3856    0.0000 C   0  0  0  0  0  0  0  0  0  0  0  0
    2.4000   -1.3856    0.0000 C   0  0  0  0  0  0  0  0  0  0  0  0
    3.2001    0.0000    0.0000 O   0  0  0  0  0  0  0  0  0  0  0  0
    3.2001   -2.7713    0.0000 O   0  0  0  0  0  0  0  0  0  0  0  0
    4.8000   -2.7713    0.0000 H   0  0  0  0  0  0  0  0  0  0  0  0
    0.0001    0.0000    0.0000 C   0  0  0  0  0  0  0  0  0  0  0  0
    0.8000    1.3856    0.0000 N   0  0  0  0  0  0  0  0  0  0  0  0
    2.4000    1.3856    0.0000 O   0  0  0  0  0  0  0  0  0  0  0  0
    0.0001    2.7713    0.0000 O   0  0  0  0  0  0  0  0  0  0  0  0
   -1.6000    2.7713    0.0000 O   0  0  0  0  0  0  0  0  0  0  0  0
   -4.8000    2.7713    0.0000 H   0  0  0  0  0  0  0  0  0  0  0  0
  1  2  1  0  0  0  0
  2  3  1  0  0  0  0
  3  4  4  0  0  0  0
  4  5  1  0  0  0  0
  4  6  4  0  0  0  0
  6  7  1  0  0  0  0
  6  8  4  0  0  0  0
  8  9  1  0  0  0  0
  8 10  4  0  0  0  0
 10 11  1  0  0  0  0
 11 12  2  0  0  0  0
 11 13  1  0  0  0  0
 13 14  1  0  0  0  0
 10 15  4  0  0  0  0
 15  3  4  0  0  0  0
 15 16  1  0  0  0  0
 16 17  2  0  0  0  0
 16 18  1  0  0  0  0
  2 19  2  0  0  0  0
  1 20  1  0  0  0  0
M  CHG  2  16   1  18  -1
M  END
> <CAS>
21161-11-5

> <NAME>
1,3-Benzenedicarboxylic acid, 2-nitro-

> <preferred_name>
2-Nitroisophthalic acid

> <iupac>
2-nitrobenzene-1,3-dicarboxylic acid

> <SMILES>
[O-][N+](=O)c1c(cccc1C(O)=O)C(O)=O

> <Canonical_QSARr>
[O-][N+](=O)c1c(cccc1C(O)=O)C(O)=O

> <InChI_Code_QSARr>
InChI=1S/C8H5NO6/c10-7(11)4-2-1-3-5(8(12)13)6(4)9(14)15/h1-3H,(H,10,11)(H,12,13)

> <InChI Key_QSARr>
CAHWDGJDQYAFHM-UHFFFAOYSA-N

> <Salt_Solvent>
?

> <WS Temperature>
25

> <WS Reference>
BEILSTEIN

> <dsstox_substance_id>
DTXSID30175396

> <LogMolar>
-1.9901

$$$$
21609-90-5
  -INDIGO-01081615412D

 30 31  0  0  0  0  0  0  0  0999 V2000
   -0.0001   -0.0000    0.0000 P   0  0  0  0  0  0  0  0  0  0  0  0
    0.7999    1.3856    0.0000 O   0  0  0  0  0  0  0  0  0  0  0  0
   -0.0001    2.7713    0.0000 C   0  0  0  0  0  0  0  0  0  0  0  0
   -0.8000    4.1569    0.0000 H   0  0  0  0  0  0  0  0  0  0  0  0
    0.7999    4.1569    0.0000 H   0  0  0  0  0  0  0  0  0  0  0  0
   -1.6000    2.7713    0.0000 H   0  0  0  0  0  0  0  0  0  0  0  0
    1.3856   -0.8000    0.0000 C   0  0  0  0  0  0  0  0  0  0  0  0
    1.3856   -2.4000    0.0000 C   0  0  0  0  0  0  0  0  0  0  0  0
   -0.0001   -3.2000    0.0000 H   0  0  0  0  0  0  0  0  0  0  0  0
    2.7713   -3.2000    0.0000 C   0  0  0  0  0  0  0  0  0  0  0  0
    2.7713   -4.8000    0.0000 H   0  0  0  0  0  0  0  0  0  0  0  0
    4.1569   -2.4000    0.0000 C   0  0  0  0  0  0  0  0  0  0  0  0
    5.5426   -3.2000    0.0000 H   0  0  0  0  0  0  0  0  0  0  0  0
    4.1569   -0.8000    0.0000 C   0  0  0  0  0  0  0  0  0  0  0  0
    5.5426   -0.0000    0.0000 H   0  0  0  0  0  0  0  0  0  0  0  0
    2.7713   -0.0000    0.0000 C   0  0  0  0  0  0  0  0  0  0  0  0
    2.7713    1.6000    0.0000 H   0  0  0  0  0  0  0  0  0  0  0  0
   -0.8000   -1.3856    0.0000 S   0  0  0  0  0  0  0  0  0  0  0  0
   -1.3856    0.7999    0.0000 O   0  0  0  0  0  0  0  0  0  0  0  0
   -2.7713   -0.0000    0.0000 C   0  0  0  0  0  0  0  0  0  0  0  0
   -4.1570    0.7999    0.0000 C   0  0  0  0  0  0  0  0  0  0  0  0
   -4.1570    2.4000    0.0000 Cl  0  0  0  0  0  0  0  0  0  0  0  0
   -5.5425   -0.0000    0.0000 C   0  0  0  0  0  0  0  0  0  0  0  0
   -6.9282    0.7999    0.0000 H   0  0  0  0  0  0  0  0  0  0  0  0
   -5.5425   -1.6001    0.0000 C   0  0  0  0  0  0  0  0  0  0  0  0
   -6.9282   -2.4000    0.0000 Br  0  0  0  0  0  0  0  0  0  0  0  0
   -4.1570   -2.4000    0.0000 C   0  0  0  0  0  0  0  0  0  0  0  0
   -4.1570   -4.0000    0.0000 Cl  0  0  0  0  0  0  0  0  0  0  0  0
   -2.7713   -1.6001    0.0000 C   0  0  0  0  0  0  0  0  0  0  0  0
   -1.3856   -2.4000    0.0000 H   0  0  0  0  0  0  0  0  0  0  0  0
  1  2  1  0  0  0  0
  2  3  1  0  0  0  0
  3  4  1  0  0  0  0
  3  5  1  0  0  0  0
  3  6  1  0  0  0  0
  1  7  1  0  0  0  0
  7  8  4  0  0  0  0
  8  9  1  0  0  0  0
  8 10  4  0  0  0  0
 10 11  1  0  0  0  0
 10 12  4  0  0  0  0
 12 13  1  0  0  0  0
 12 14  4  0  0  0  0
 14 15  1  0  0  0  0
 14 16  4  0  0  0  0
 16  7  4  0  0  0  0
 16 17  1  0  0  0  0
  1 18  2  0  0  0  0
  1 19  1  0  0  0  0
 19 20  1  0  0  0  0
 20 21  4  0  0  0  0
 21 22  1  0  0  0  0
 21 23  4  0  0  0  0
 23 24  1  0  0  0  0
 23 25  4  0  0  0  0
 25 26  1  0  0  0  0
 25 27  4  0  0  0  0
 27 28  1  0  0  0  0
 27 29  4  0  0  0  0
 29 20  4  0  0  0  0
 29 30  1  0  0  0  0
M  END
> <CAS>
21609-90-5

> <NAME>
LEPTOPHOS

> <preferred_name>
Leptophos

> <iupac>
O-(4-bromo-2,5-dichlorophenyl) O-methyl phenylphosphonothioate

> <SMILES>
COP(=S)(Oc1cc(Cl)c(Br)cc1Cl)c1ccccc1

> <Canonical_QSARr>
COP(=S)(Oc1cc(Cl)c(Br)cc1Cl)c1ccccc1

> <InChI_Code_QSARr>
InChI=1S/C13H10BrCl2O2PS/c1-17-19(20,9-5-3-2-4-6-9)18-13-8-11(15)10(14)7-12(13)16/h2-8H,1H3

> <InChI Key_QSARr>
CVRALZAYCYJELZ-UHFFFAOYSA-N

> <Salt_Solvent>
?

> <WS Temperature>
24

> <WS Reference>
YALKOWSKY,SH & DANNENFELSER,RM (1992)

> <dsstox_substance_id>
DTXSID3040279

> <LogMolar>
-7.1379

$$$$
21744-84-3
  -INDIGO-01081615412D

 21 22  0  0  0  0  0  0  0  0999 V2000
    0.0000    2.7713    0.0000 O   0  0  0  0  0  0  0  0  0  0  0  0
   -1.6000    2.7713    0.0000 C   0  0  0  0  0  0  0  0  0  0  0  0
   -1.3222    4.3470    0.0000 H   0  0  0  0  0  0  0  0  0  0  0  0
   -3.1036    3.3185    0.0000 H   0  0  0  0  0  0  0  0  0  0  0  0
   -2.4001    1.3856    0.0000 C   0  0  0  0  0  0  0  0  0  0  0  0
   -4.0000    1.3856    0.0000 O   0  0  0  0  0  0  0  0  0  0  0  0
   -1.6000   -0.0000    0.0000 N   0  0  0  0  0  0  0  0  0  0  0  0
   -2.4001   -1.3856    0.0000 C   0  0  0  0  0  0  0  0  0  0  0  0
   -3.2000   -2.7713    0.0000 H   0  0  0  0  0  0  0  0  0  0  0  0
   -4.0000   -1.3856    0.0000 H   0  0  0  0  0  0  0  0  0  0  0  0
   -1.6000   -2.7713    0.0000 H   0  0  0  0  0  0  0  0  0  0  0  0
    0.0000   -0.0000    0.0000 C   0  0  0  0  0  0  0  0  0  0  0  0
    0.8000   -1.3856    0.0000 C   0  0  0  0  0  0  0  0  0  0  0  0
    2.4000   -1.3856    0.0000 C   0  0  0  0  0  0  0  0  0  0  0  0
    3.2001   -0.0000    0.0000 C   0  0  0  0  0  0  0  0  0  0  0  0
    2.4000    1.3856    0.0000 C   0  0  0  0  0  0  0  0  0  0  0  0
    3.2001    2.7713    0.0000 H   0  0  0  0  0  0  0  0  0  0  0  0
    0.8000    1.3856    0.0000 C   0  0  0  0  0  0  0  0  0  0  0  0
    4.8000   -0.0000    0.0000 H   0  0  0  0  0  0  0  0  0  0  0  0
    3.2001   -2.7713    0.0000 H   0  0  0  0  0  0  0  0  0  0  0  0
    0.0000   -2.7713    0.0000 H   0  0  0  0  0  0  0  0  0  0  0  0
  1  2  1  0  0  0  0
  2  3  1  0  0  0  0
  2  4  1  0  0  0  0
  2  5  1  0  0  0  0
  5  6  2  0  0  0  0
  5  7  1  0  0  0  0
  7  8  1  0  0  0  0
  8  9  1  0  0  0  0
  8 10  1  0  0  0  0
  8 11  1  0  0  0  0
  7 12  1  0  0  0  0
 12 13  4  0  0  0  0
 13 14  4  0  0  0  0
 14 15  4  0  0  0  0
 15 16  4  0  0  0  0
 16 17  1  0  0  0  0
 16 18  4  0  0  0  0
 18  1  1  0  0  0  0
 18 12  4  0  0  0  0
 15 19  1  0  0  0  0
 14 20  1  0  0  0  0
 13 21  1  0  0  0  0
M  END
> <CAS>
21744-84-3

> <NAME>
2H-1,4-Benzoxazin-3(4H)-one, 4-methyl-

> <preferred_name>
2H-1,4-Benzoxazin-3(4H)-one,4-methyl-

> <iupac>
4-methyl-1,4-benzoxazin-3-one

> <SMILES>
CN1C(=O)COc2ccccc12

> <Canonical_QSARr>
CN1C(=O)COc2ccccc12

> <InChI_Code_QSARr>
InChI=1S/C9H9NO2/c1-10-7-4-2-3-5-8(7)12-6-9(10)11/h2-5H,6H2,1H3

> <InChI Key_QSARr>
DBJMEBUKQVZWMD-UHFFFAOYSA-N

> <Salt_Solvent>
?

> <WS Temperature>
20

> <WS Reference>
BEILSTEIN

> <dsstox_substance_id>
DTXSID30176141

> <LogMolar>
-2.1445

$$$$
22150-76-1
  -INDIGO-01081615412D

 28 29  0  0  0  0  0  0  0  0999 V2000
    0.0000   -1.6000    0.0000 O   0  0  0  0  0  0  0  0  0  0  0  0
    0.0000    0.0000    0.0000 C   0  0  0  0  0  0  0  0  0  0  0  0
   -1.6001    0.0000    0.0000 C   0  0  0  0  0  0  0  0  0  0  0  0
   -2.4001    1.3856    0.0000 C   0  0  0  0  0  0  0  0  0  0  0  0
   -1.6001    2.7713    0.0000 H   0  0  0  0  0  0  0  0  0  0  0  0
   -4.0000    1.3856    0.0000 N   0  0  0  1  0  0  0  0  0  0  0  0
   -4.8000    0.0000    0.0000 C   0  0  0  0  0  0  0  0  0  0  0  0
   -4.0000   -1.3856    0.0000 C   0  0  0  0  0  0  0  0  0  0  0  0
   -4.8000   -2.7713    0.0000 C   0  0  0  0  0  0  0  0  0  0  0  0
   -6.4001   -2.7713    0.0000 N   0  0  0  0  0  0  0  0  0  0  0  0
   -7.1999   -1.3856    0.0000 C   0  0  0  0  0  0  0  0  0  0  0  0
   -8.8000   -1.3856    0.0000 N   0  0  0  0  0  0  0  0  0  0  0  0
   -9.6000   -2.7713    0.0000 H   0  0  0  0  0  0  0  0  0  0  0  0
   -9.6000    0.0000    0.0000 H   0  0  0  0  0  0  0  0  0  0  0  0
   -6.4001    0.0000    0.0000 N   0  0  0  0  0  0  0  0  0  0  0  0
   -7.1999    1.3856    0.0000 H   0  0  0  0  0  0  0  0  0  0  0  0
   -4.0000   -4.1569    0.0000 O   0  0  0  0  0  0  0  0  0  0  0  0
   -2.4001   -1.3856    0.0000 N   0  0  0  1  0  0  0  0  0  0  0  0
    1.6001    0.0000    0.0000 C   0  0  0  0  0  0  0  0  0  0  0  0
    3.1999    0.0000    0.0000 C   0  0  0  0  0  0  0  0  0  0  0  0
    4.8000    0.0000    0.0000 H   0  0  0  0  0  0  0  0  0  0  0  0
    4.0000    1.3856    0.0000 H   0  0  0  0  0  0  0  0  0  0  0  0
    4.0000   -1.3856    0.0000 H   0  0  0  0  0  0  0  0  0  0  0  0
    1.6001   -1.6000    0.0000 O   0  0  0  0  0  0  0  0  0  0  0  0
    2.9857   -2.4000    0.0000 H   0  0  0  0  0  0  0  0  0  0  0  0
    1.6001    1.6000    0.0000 H   0  0  0  0  0  0  0  0  0  0  0  0
    0.0000    1.6000    0.0000 H   0  0  0  0  0  0  0  0  0  0  0  0
   -1.3856   -2.4000    0.0000 H   0  0  0  0  0  0  0  0  0  0  0  0
  1  2  1  0  0  0  0
  2  3  1  0  0  0  0
  3  4  4  0  0  0  0
  4  5  1  0  0  0  0
  4  6  4  0  0  0  0
  6  7  4  0  0  0  0
  7  8  4  0  0  0  0
  8  9  1  0  0  0  0
  9 10  1  0  0  0  0
 10 11  2  0  0  0  0
 11 12  1  0  0  0  0
 12 13  1  0  0  0  0
 12 14  1  0  0  0  0
 11 15  1  0  0  0  0
 15  7  1  0  0  0  0
 15 16  1  0  0  0  0
  9 17  2  0  0  0  0
  8 18  4  0  0  0  0
 18  3  4  0  0  0  0
  2 19  1  0  0  0  0
 19 20  1  0  0  0  0
 20 21  1  0  0  0  0
 20 22  1  0  0  0  0
 20 23  1  0  0  0  0
 19 24  1  0  0  0  0
 24 25  1  0  0  0  0
 19 26  1  0  0  0  0
  2 27  1  0  0  0  0
  1 28  1  0  0  0  0
M  END
> <CAS>
22150-76-1

> <NAME>
BIOPTERIN

> <preferred_name>
PUBCHEM_12646210

> <iupac>
C9H11N5O3

> <SMILES>
C[C@H](O)[C@@H](O)c1c[n]c2NC(N)=NC(=O)c2[n]1

> <Canonical_QSARr>
CC(O)C(O)c1c[n]c2NC(N)=NC(=O)c2[n]1

> <InChI_Code_QSARr>
InChI=1S/C9H11N5O3/c1-3(15)6(16)4-2-11-7-5(12-4)8(17)14-9(10)13-7/h2-3,6,15-16H,1H3,(H3,10,11,13,14,17)

> <InChI Key_QSARr>
LHQIJBMDNUYRAM-UHFFFAOYSA-N

> <Salt_Solvent>
?

> <WS Temperature>
20

> <WS Reference>
MERCK INDEX (1996)

> <dsstox_substance_id>
DTXSID60505546

> <LogMolar>
-2.5301

$$$$
22259-30-9
  -INDIGO-01081615412D

 31 31  0  0  0  0  0  0  0  0999 V2000
    1.3857   -0.8001    0.0000 C   0  0  0  0  0  0  0  0  0  0  0  0
    2.7713    0.0000    0.0000 N   0  0  0  0  0  0  0  0  0  0  0  0
    4.1569   -0.7999    0.0000 C   0  0  0  0  0  0  0  0  0  0  0  0
    4.1569   -2.3999    0.0000 C   0  0  0  0  0  0  0  0  0  0  0  0
    2.7713   -3.2000    0.0000 H   0  0  0  0  0  0  0  0  0  0  0  0
    5.5427   -3.2000    0.0000 C   0  0  0  0  0  0  0  0  0  0  0  0
    5.5427   -4.8000    0.0000 H   0  0  0  0  0  0  0  0  0  0  0  0
    6.9283   -2.3999    0.0000 C   0  0  0  0  0  0  0  0  0  0  0  0
    8.3138   -3.2000    0.0000 H   0  0  0  0  0  0  0  0  0  0  0  0
    6.9283   -0.7999    0.0000 C   0  0  0  0  0  0  0  0  0  0  0  0
    8.3138    0.0000    0.0000 O   0  0  0  0  0  0  0  0  0  0  0  0
    9.6994   -0.8001    0.0000 C   0  0  0  0  0  0  0  0  0  0  0  0
   11.0853    0.0000    0.0000 N   0  0  0  0  0  0  0  0  0  0  0  0
   12.4708   -0.8001    0.0000 C   0  0  0  0  0  0  0  0  0  0  0  0
   13.8564   -1.6000    0.0000 H   0  0  0  0  0  0  0  0  0  0  0  0
   13.8564    0.0000    0.0000 H   0  0  0  0  0  0  0  0  0  0  0  0
   12.4708   -2.4001    0.0000 H   0  0  0  0  0  0  0  0  0  0  0  0
   11.0853    1.6000    0.0000 H   0  0  0  0  0  0  0  0  0  0  0  0
    9.6994   -2.4001    0.0000 O   0  0  0  0  0  0  0  0  0  0  0  0
    5.5427    0.0000    0.0000 C   0  0  0  0  0  0  0  0  0  0  0  0
    5.5427    1.6000    0.0000 H   0  0  0  0  0  0  0  0  0  0  0  0
   -0.0001    0.0000    0.0000 N   0  0  0  0  0  0  0  0  0  0  0  0
   -1.3857   -0.8001    0.0000 C   0  0  0  0  0  0  0  0  0  0  0  0
   -2.7713   -1.6000    0.0000 H   0  0  0  0  0  0  0  0  0  0  0  0
   -2.7713    0.0000    0.0000 H   0  0  0  0  0  0  0  0  0  0  0  0
   -1.3857   -2.4001    0.0000 H   0  0  0  0  0  0  0  0  0  0  0  0
   -0.0001    1.6000    0.0000 C   0  0  0  0  0  0  0  0  0  0  0  0
   -0.0001    3.2000    0.0000 H   0  0  0  0  0  0  0  0  0  0  0  0
   -1.3857    2.4001    0.0000 H   0  0  0  0  0  0  0  0  0  0  0  0
    1.3857    2.4001    0.0000 H   0  0  0  0  0  0  0  0  0  0  0  0
    1.3857   -2.4001    0.0000 H   0  0  0  0  0  0  0  0  0  0  0  0
  1  2  2  0  0  0  0
  2  3  1  0  0  0  0
  3  4  4  0  0  0  0
  4  5  1  0  0  0  0
  4  6  4  0  0  0  0
  6  7  1  0  0  0  0
  6  8  4  0  0  0  0
  8  9  1  0  0  0  0
  8 10  4  0  0  0  0
 10 11  1  0  0  0  0
 11 12  1  0  0  0  0
 12 13  1  0  0  0  0
 13 14  1  0  0  0  0
 14 15  1  0  0  0  0
 14 16  1  0  0  0  0
 14 17  1  0  0  0  0
 13 18  1  0  0  0  0
 12 19  2  0  0  0  0
 10 20  4  0  0  0  0
 20  3  4  0  0  0  0
 20 21  1  0  0  0  0
  1 22  1  0  0  0  0
 22 23  1  0  0  0  0
 23 24  1  0  0  0  0
 23 25  1  0  0  0  0
 23 26  1  0  0  0  0
 22 27  1  0  0  0  0
 27 28  1  0  0  0  0
 27 29  1  0  0  0  0
 27 30  1  0  0  0  0
  1 31  1  0  0  0  0
M  END
> <CAS>
22259-30-9

> <NAME>
FORMETANATE

> <preferred_name>
Formetanate

> <iupac>
3-{[(dimethylamino)methylidene]amino}phenyl methylcarbamate

> <SMILES>
CNC(=O)Oc1cc(ccc1)N=CN(C)C

> <Canonical_QSARr>
CNC(=O)Oc1cc(ccc1)N=CN(C)C

> <InChI_Code_QSARr>
InChI=1S/C11H15N3O2/c1-12-11(15)16-10-6-4-5-9(7-10)13-8-14(2)3/h4-8H,1-3H3,(H,12,15)/b13-8+

> <InChI Key_QSARr>
RMFNNCGOSPBBAD-MDWZMJQESA-N

> <Salt_Solvent>
?

> <WS Temperature>


> <WS Reference>
YALKOWSKY,SH & DANNENFELSER,RM (1992)

> <dsstox_substance_id>
DTXSID9041990

> <LogMolar>
-2.3449

$$$$
22665-54-9
  -INDIGO-01081615412D

 20 19  0  0  0  0  0  0  0  0999 V2000
    4.1569    0.8000    0.0000 C   0  0  0  0  0  0  0  0  0  0  0  0
    5.5426    1.6000    0.0000 C   0  0  0  0  0  0  0  0  0  0  0  0
    6.9283    2.4000    0.0000 O   0  0  0  0  0  0  0  0  0  0  0  0
    8.3138    1.6000    0.0000 N   0  0  0  0  0  0  0  0  0  0  0  0
    9.6995    2.4000    0.0000 O   0  0  0  0  0  0  0  0  0  0  0  0
    8.3138   -0.0000    0.0000 O   0  0  0  0  0  0  0  0  0  0  0  0
    6.3425    0.2144    0.0000 H   0  0  0  0  0  0  0  0  0  0  0  0
    4.7426    2.9856    0.0000 H   0  0  0  0  0  0  0  0  0  0  0  0
    2.7713    1.6000    0.0000 O   0  0  0  0  0  0  0  0  0  0  0  0
    1.3856    0.8000    0.0000 C   0  0  0  0  0  0  0  0  0  0  0  0
   -0.0001   -0.0000    0.0000 C   0  0  0  0  0  0  0  0  0  0  0  0
   -1.3856   -0.8000    0.0000 C   0  0  0  0  0  0  0  0  0  0  0  0
   -2.7713   -1.6000    0.0000 H   0  0  0  0  0  0  0  0  0  0  0  0
   -1.3856   -2.4000    0.0000 H   0  0  0  0  0  0  0  0  0  0  0  0
   -2.7713   -0.0000    0.0000 H   0  0  0  0  0  0  0  0  0  0  0  0
   -0.8000    1.3856    0.0000 H   0  0  0  0  0  0  0  0  0  0  0  0
    0.7999   -1.3857    0.0000 H   0  0  0  0  0  0  0  0  0  0  0  0
    2.1856   -0.5856    0.0000 H   0  0  0  0  0  0  0  0  0  0  0  0
    0.5857    2.1856    0.0000 H   0  0  0  0  0  0  0  0  0  0  0  0
    4.1569   -0.8000    0.0000 O   0  0  0  0  0  0  0  0  0  0  0  0
  1  2  1  0  0  0  0
  2  3  1  0  0  0  0
  3  4  1  0  0  0  0
  4  5  2  0  0  0  0
  4  6  1  0  0  0  0
  2  7  1  0  0  0  0
  2  8  1  0  0  0  0
  1  9  1  0  0  0  0
  9 10  1  0  0  0  0
 10 11  1  0  0  0  0
 11 12  1  0  0  0  0
 12 13  1  0  0  0  0
 12 14  1  0  0  0  0
 12 15  1  0  0  0  0
 11 16  1  0  0  0  0
 11 17  1  0  0  0  0
 10 18  1  0  0  0  0
 10 19  1  0  0  0  0
  1 20  2  0  0  0  0
M  CHG  2   4   1   6  -1
M  END
> <CAS>
22665-54-9

> <NAME>
Glycolic acid, propyl ester, nitrate

> <preferred_name>


> <iupac>


> <SMILES>
CCCOC(=O)CO[N+]([O-])=O

> <Canonical_QSARr>
CCCOC(=O)CO[N+]([O-])=O

> <InChI_Code_QSARr>
InChI=1S/C5H9NO5/c1-2-3-10-5(7)4-11-6(8)9/h2-4H2,1H3

> <InChI Key_QSARr>
AQOGFYKIAFAMFK-UHFFFAOYSA-N

> <Salt_Solvent>
?

> <WS Temperature>
30

> <WS Reference>
BEILSTEIN

> <dsstox_substance_id>


> <LogMolar>
-1.9573

$$$$
22936-75-0
  -INDIGO-01081615412D

 38 38  0  0  0  0  0  0  0  0999 V2000
    0.7999   -1.3857    0.0000 C   0  0  0  0  0  0  0  0  0  0  0  0
   -0.0000    0.0000    0.0000 C   0  0  0  0  0  0  0  0  0  0  0  0
    1.3856    0.8000    0.0000 C   0  0  0  0  0  0  0  0  0  0  0  0
    2.7713    1.6000    0.0000 N   0  0  0  0  0  0  0  0  0  0  0  0
    4.1569    0.8000    0.0000 C   0  0  0  0  0  0  0  0  0  0  0  0
    4.1569   -0.8000    0.0000 N   0  0  0  1  0  0  0  0  0  0  0  0
    5.5425   -1.6000    0.0000 C   0  0  0  0  0  0  0  0  0  0  0  0
    5.5425   -3.1999    0.0000 S   0  0  0  0  0  0  0  0  0  0  0  0
    6.9282   -4.0000    0.0000 C   0  0  0  0  0  0  0  0  0  0  0  0
    6.9282   -5.6000    0.0000 H   0  0  0  0  0  0  0  0  0  0  0  0
    8.3138   -4.7999    0.0000 H   0  0  0  0  0  0  0  0  0  0  0  0
    5.5425   -4.7999    0.0000 H   0  0  0  0  0  0  0  0  0  0  0  0
    6.9282   -0.8000    0.0000 N   0  0  0  1  0  0  0  0  0  0  0  0
    6.9282    0.8000    0.0000 C   0  0  0  0  0  0  0  0  0  0  0  0
    8.3138    1.6000    0.0000 N   0  0  0  0  0  0  0  0  0  0  0  0
    9.6995    0.8000    0.0000 C   0  0  0  0  0  0  0  0  0  0  0  0
   11.0851    0.0000    0.0000 C   0  0  0  0  0  0  0  0  0  0  0  0
   12.4708   -0.8000    0.0000 H   0  0  0  0  0  0  0  0  0  0  0  0
   12.4708    0.8000    0.0000 H   0  0  0  0  0  0  0  0  0  0  0  0
   11.0851   -1.6000    0.0000 H   0  0  0  0  0  0  0  0  0  0  0  0
   10.4994    2.1857    0.0000 H   0  0  0  0  0  0  0  0  0  0  0  0
    8.8996   -0.5856    0.0000 H   0  0  0  0  0  0  0  0  0  0  0  0
    8.3138    3.2000    0.0000 H   0  0  0  0  0  0  0  0  0  0  0  0
    5.5425    1.6000    0.0000 N   0  0  0  1  0  0  0  0  0  0  0  0
    2.7713    3.2000    0.0000 H   0  0  0  0  0  0  0  0  0  0  0  0
    0.5857    2.1857    0.0000 C   0  0  0  0  0  0  0  0  0  0  0  0
   -0.2145    3.5713    0.0000 H   0  0  0  0  0  0  0  0  0  0  0  0
    1.3856    3.5713    0.0000 H   0  0  0  0  0  0  0  0  0  0  0  0
   -0.9901    2.4635    0.0000 H   0  0  0  0  0  0  0  0  0  0  0  0
    2.1855   -0.5856    0.0000 H   0  0  0  0  0  0  0  0  0  0  0  0
   -1.5035   -0.5473    0.0000 C   0  0  0  0  0  0  0  0  0  0  0  0
   -3.0070   -1.0945    0.0000 H   0  0  0  0  0  0  0  0  0  0  0  0
   -2.7293    0.4812    0.0000 H   0  0  0  0  0  0  0  0  0  0  0  0
   -1.7813   -2.1229    0.0000 H   0  0  0  0  0  0  0  0  0  0  0  0
   -1.0286    1.2257    0.0000 H   0  0  0  0  0  0  0  0  0  0  0  0
   -0.0000   -2.7713    0.0000 H   0  0  0  0  0  0  0  0  0  0  0  0
    1.6001   -2.7713    0.0000 H   0  0  0  0  0  0  0  0  0  0  0  0
   -0.8000   -1.3857    0.0000 H   0  0  0  0  0  0  0  0  0  0  0  0
  1  2  1  0  0  0  0
  2  3  1  0  0  0  0
  3  4  1  0  0  0  0
  4  5  1  0  0  0  0
  5  6  4  0  0  0  0
  6  7  4  0  0  0  0
  7  8  1  0  0  0  0
  8  9  1  0  0  0  0
  9 10  1  0  0  0  0
  9 11  1  0  0  0  0
  9 12  1  0  0  0  0
  7 13  4  0  0  0  0
 13 14  4  0  0  0  0
 14 15  1  0  0  0  0
 15 16  1  0  0  0  0
 16 17  1  0  0  0  0
 17 18  1  0  0  0  0
 17 19  1  0  0  0  0
 17 20  1  0  0  0  0
 16 21  1  0  0  0  0
 16 22  1  0  0  0  0
 15 23  1  0  0  0  0
 14 24  4  0  0  0  0
 24  5  4  0  0  0  0
  4 25  1  0  0  0  0
  3 26  1  0  0  0  0
 26 27  1  0  0  0  0
 26 28  1  0  0  0  0
 26 29  1  0  0  0  0
  3 30  1  0  0  0  0
  2 31  1  0  0  0  0
 31 32  1  0  0  0  0
 31 33  1  0  0  0  0
 31 34  1  0  0  0  0
  2 35  1  0  0  0  0
  1 36  1  0  0  0  0
  1 37  1  0  0  0  0
  1 38  1  0  0  0  0
M  END
> <CAS>
22936-75-0

> <NAME>
DIMETHAMRTRYNE

> <preferred_name>
Dimethametryn

> <iupac>
N-ethyl-N'-(3-methylbutan-2-yl)-6-(methylsulfanyl)-1,3,5-triazine-2,4-diamine

> <SMILES>
CC(C)C(C)Nc1[n]c(NCC)[n]c([n]1)SC

> <Canonical_QSARr>
CC(C)C(C)Nc1[n]c(NCC)[n]c([n]1)SC

> <InChI_Code_QSARr>
InChI=1S/C11H21N5S/c1-6-12-9-14-10(13-8(4)7(2)3)16-11(15-9)17-5/h7-8H,6H2,1-5H3,(H2,12,13,14,15,16)

> <InChI Key_QSARr>
IKYICRRUVNIHPP-UHFFFAOYSA-N

> <Salt_Solvent>
?

> <WS Temperature>
20

> <WS Reference>
SHIU,WY ET AL. (1990)

> <dsstox_substance_id>
DTXSID3041873

> <LogMolar>
-3.7082

$$$$
23043-88-1
  -INDIGO-01081615412D

 27 28  0  0  0  0  0  0  0  0999 V2000
    0.0001    2.7712    0.0000 O   0  0  0  0  0  0  0  0  0  0  0  0
    0.8000    1.3856    0.0000 C   0  0  0  0  0  0  0  0  0  0  0  0
    0.0001   -0.0001    0.0000 C   0  0  0  0  0  0  0  0  0  0  0  0
    0.8000   -1.3856    0.0000 C   0  0  0  0  0  0  0  0  0  0  0  0
   -0.2706   -2.5747    0.0000 N   0  0  0  1  0  0  0  0  0  0  0  0
   -1.7323   -1.9239    0.0000 C   0  0  0  0  0  0  0  0  0  0  0  0
   -1.5650   -0.3327    0.0000 N   0  0  0  1  0  0  0  0  0  0  0  0
   -2.7541    0.7379    0.0000 C   0  0  0  0  0  0  0  0  0  0  0  0
   -3.9431    1.8086    0.0000 C   0  0  0  0  0  0  0  0  0  0  0  0
   -5.1321    2.8792    0.0000 H   0  0  0  0  0  0  0  0  0  0  0  0
   -5.4648    1.3141    0.0000 H   0  0  0  0  0  0  0  0  0  0  0  0
   -3.6104    3.3736    0.0000 H   0  0  0  0  0  0  0  0  0  0  0  0
   -3.8247   -0.4511    0.0000 H   0  0  0  0  0  0  0  0  0  0  0  0
   -1.6834    1.9270    0.0000 H   0  0  0  0  0  0  0  0  0  0  0  0
   -3.1180   -2.7239    0.0000 H   0  0  0  0  0  0  0  0  0  0  0  0
    2.3999   -1.3856    0.0000 N   0  0  0  0  0  0  0  0  0  0  0  0
    3.2000   -2.7712    0.0000 C   0  0  0  0  0  0  0  0  0  0  0  0
    3.9999   -4.1569    0.0000 H   0  0  0  0  0  0  0  0  0  0  0  0
    4.8000   -2.7712    0.0000 H   0  0  0  0  0  0  0  0  0  0  0  0
    2.3999   -4.1569    0.0000 H   0  0  0  0  0  0  0  0  0  0  0  0
    3.2000   -0.0001    0.0000 C   0  0  0  0  0  0  0  0  0  0  0  0
    4.8000   -0.0001    0.0000 O   0  0  0  0  0  0  0  0  0  0  0  0
    2.3999    1.3856    0.0000 N   0  0  0  0  0  0  0  0  0  0  0  0
    3.2000    2.7712    0.0000 C   0  0  0  0  0  0  0  0  0  0  0  0
    3.9999    4.1569    0.0000 H   0  0  0  0  0  0  0  0  0  0  0  0
    4.8000    2.7713    0.0000 H   0  0  0  0  0  0  0  0  0  0  0  0
    2.3999    4.1569    0.0000 H   0  0  0  0  0  0  0  0  0  0  0  0
  1  2  2  0  0  0  0
  2  3  1  0  0  0  0
  3  4  4  0  0  0  0
  4  5  4  0  0  0  0
  5  6  4  0  0  0  0
  6  7  4  0  0  0  0
  7  3  4  0  0  0  0
  7  8  1  0  0  0  0
  8  9  1  0  0  0  0
  9 10  1  0  0  0  0
  9 11  1  0  0  0  0
  9 12  1  0  0  0  0
  8 13  1  0  0  0  0
  8 14  1  0  0  0  0
  6 15  1  0  0  0  0
  4 16  1  0  0  0  0
 16 17  1  0  0  0  0
 17 18  1  0  0  0  0
 17 19  1  0  0  0  0
 17 20  1  0  0  0  0
 16 21  1  0  0  0  0
 21 22  2  0  0  0  0
 21 23  1  0  0  0  0
 23  2  1  0  0  0  0
 23 24  1  0  0  0  0
 24 25  1  0  0  0  0
 24 26  1  0  0  0  0
 24 27  1  0  0  0  0
M  END
> <CAS>
23043-88-1

> <NAME>
1H-Purine-2,6-dione, 7-ethyl-3,7-dihydro-1,3-dim

> <preferred_name>
7-Ethyltheophylline

> <iupac>
7-ethyl-1,3-dimethylpurine-2,6-dione

> <SMILES>
CC[n]1c[n]c2c1C(=O)N(C)C(=O)N2C

> <Canonical_QSARr>
CC[n]1c[n]c2c1C(=O)N(C)C(=O)N2C

> <InChI_Code_QSARr>
InChI=1S/C9H12N4O2/c1-4-13-5-10-7-6(13)8(14)12(3)9(15)11(7)2/h5H,4H2,1-3H3

> <InChI Key_QSARr>
RPOQNHMXOPWCEK-UHFFFAOYSA-N

> <Salt_Solvent>
?

> <WS Temperature>
30

> <WS Reference>
BEILSTEIN

> <dsstox_substance_id>
DTXSID00177605

> <LogMolar>
-0.7544

$$$$
23184-66-9
  -INDIGO-01081615412D

 47 47  0  0  0  0  0  0  0  0999 V2000
    1.3856    0.8000    0.0000 N   0  0  0  0  0  0  0  0  0  0  0  0
    2.6112   -0.2285    0.0000 C   0  0  0  0  0  0  0  0  0  0  0  0
    3.8370   -1.2569    0.0000 O   0  0  0  0  0  0  0  0  0  0  0  0
    5.3405   -0.7097    0.0000 C   0  0  0  0  0  0  0  0  0  0  0  0
    6.8439   -0.1624    0.0000 C   0  0  0  0  0  0  0  0  0  0  0  0
    8.3476    0.3848    0.0000 C   0  0  0  0  0  0  0  0  0  0  0  0
    9.8511    0.9321    0.0000 C   0  0  0  0  0  0  0  0  0  0  0  0
   11.3545    1.4792    0.0000 H   0  0  0  0  0  0  0  0  0  0  0  0
   11.0767   -0.0965    0.0000 H   0  0  0  0  0  0  0  0  0  0  0  0
   10.1289    2.5077    0.0000 H   0  0  0  0  0  0  0  0  0  0  0  0
    8.8948   -1.1187    0.0000 H   0  0  0  0  0  0  0  0  0  0  0  0
    7.8002    1.8884    0.0000 H   0  0  0  0  0  0  0  0  0  0  0  0
    7.3912   -1.6659    0.0000 H   0  0  0  0  0  0  0  0  0  0  0  0
    6.2967    1.3411    0.0000 H   0  0  0  0  0  0  0  0  0  0  0  0
    5.8877   -2.2132    0.0000 H   0  0  0  0  0  0  0  0  0  0  0  0
    4.7933    0.7939    0.0000 H   0  0  0  0  0  0  0  0  0  0  0  0
    3.6399    0.9972    0.0000 H   0  0  0  0  0  0  0  0  0  0  0  0
    1.5828   -1.4541    0.0000 H   0  0  0  0  0  0  0  0  0  0  0  0
    1.3856    2.4001    0.0000 C   0  0  0  0  0  0  0  0  0  0  0  0
    2.7712    3.2000    0.0000 C   0  0  0  0  0  0  0  0  0  0  0  0
    4.1570    3.9999    0.0000 Cl  0  0  0  0  0  0  0  0  0  0  0  0
    2.7712    4.8001    0.0000 H   0  0  0  0  0  0  0  0  0  0  0  0
    4.1570    2.4001    0.0000 H   0  0  0  0  0  0  0  0  0  0  0  0
    0.1601    3.4284    0.0000 O   0  0  0  0  0  0  0  0  0  0  0  0
    0.0001    0.0001    0.0000 C   0  0  0  0  0  0  0  0  0  0  0  0
   -1.3855    0.8000    0.0000 C   0  0  0  0  0  0  0  0  0  0  0  0
   -1.3855    2.4001    0.0000 C   0  0  0  0  0  0  0  0  0  0  0  0
   -1.3855    3.9999    0.0000 C   0  0  0  0  0  0  0  0  0  0  0  0
   -1.3855    5.6000    0.0000 H   0  0  0  0  0  0  0  0  0  0  0  0
   -2.7713    4.8001    0.0000 H   0  0  0  0  0  0  0  0  0  0  0  0
    0.0001    4.8001    0.0000 H   0  0  0  0  0  0  0  0  0  0  0  0
   -2.9855    2.4001    0.0000 H   0  0  0  0  0  0  0  0  0  0  0  0
    0.1901    2.1221    0.0000 H   0  0  0  0  0  0  0  0  0  0  0  0
   -2.7713    0.0001    0.0000 C   0  0  0  0  0  0  0  0  0  0  0  0
   -4.1569    0.8000    0.0000 H   0  0  0  0  0  0  0  0  0  0  0  0
   -2.7713   -1.6000    0.0000 C   0  0  0  0  0  0  0  0  0  0  0  0
   -4.1569   -2.3999    0.0000 H   0  0  0  0  0  0  0  0  0  0  0  0
   -1.3855   -2.3999    0.0000 C   0  0  0  0  0  0  0  0  0  0  0  0
   -1.3855   -4.0000    0.0000 H   0  0  0  0  0  0  0  0  0  0  0  0
    0.0001   -1.6000    0.0000 C   0  0  0  0  0  0  0  0  0  0  0  0
    1.0285   -2.8257    0.0000 C   0  0  0  0  0  0  0  0  0  0  0  0
    1.8285   -4.2113    0.0000 C   0  0  0  0  0  0  0  0  0  0  0  0
    2.6285   -5.5970    0.0000 H   0  0  0  0  0  0  0  0  0  0  0  0
    3.4285   -4.2113    0.0000 H   0  0  0  0  0  0  0  0  0  0  0  0
    1.0285   -5.5970    0.0000 H   0  0  0  0  0  0  0  0  0  0  0  0
    2.4141   -2.0258    0.0000 H   0  0  0  0  0  0  0  0  0  0  0  0
   -0.3571   -3.6256    0.0000 H   0  0  0  0  0  0  0  0  0  0  0  0
  1  2  1  0  0  0  0
  2  3  1  0  0  0  0
  3  4  1  0  0  0  0
  4  5  1  0  0  0  0
  5  6  1  0  0  0  0
  6  7  1  0  0  0  0
  7  8  1  0  0  0  0
  7  9  1  0  0  0  0
  7 10  1  0  0  0  0
  6 11  1  0  0  0  0
  6 12  1  0  0  0  0
  5 13  1  0  0  0  0
  5 14  1  0  0  0  0
  4 15  1  0  0  0  0
  4 16  1  0  0  0  0
  2 17  1  0  0  0  0
  2 18  1  0  0  0  0
  1 19  1  0  0  0  0
 19 20  1  0  0  0  0
 20 21  1  0  0  0  0
 20 22  1  0  0  0  0
 20 23  1  0  0  0  0
 19 24  2  0  0  0  0
  1 25  1  0  0  0  0
 25 26  4  0  0  0  0
 26 27  1  0  0  0  0
 27 28  1  0  0  0  0
 28 29  1  0  0  0  0
 28 30  1  0  0  0  0
 28 31  1  0  0  0  0
 27 32  1  0  0  0  0
 27 33  1  0  0  0  0
 26 34  4  0  0  0  0
 34 35  1  0  0  0  0
 34 36  4  0  0  0  0
 36 37  1  0  0  0  0
 36 38  4  0  0  0  0
 38 39  1  0  0  0  0
 38 40  4  0  0  0  0
 40 25  4  0  0  0  0
 40 41  1  0  0  0  0
 41 42  1  0  0  0  0
 42 43  1  0  0  0  0
 42 44  1  0  0  0  0
 42 45  1  0  0  0  0
 41 46  1  0  0  0  0
 41 47  1  0  0  0  0
M  END
> <CAS>
23184-66-9

> <NAME>
BUTACHLOR

> <preferred_name>
Butachlor

> <iupac>
N-(butoxymethyl)-2-chloro-N-(2,6-diethylphenyl)acetamide

> <SMILES>
CCCCOCN(C(=O)CCl)c1c(CC)cccc1CC

> <Canonical_QSARr>
CCCCOCN(C(=O)CCl)c1c(CC)cccc1CC

> <InChI_Code_QSARr>
InChI=1S/C17H26ClNO2/c1-4-7-11-21-13-19(16(20)12-18)17-14(5-2)9-8-10-15(17)6-3/h8-10H,4-7,11-13H2,1-3H3

> <InChI Key_QSARr>
HKPHPIREJKHECO-UHFFFAOYSA-N

> <Salt_Solvent>
?

> <WS Temperature>
20

> <WS Reference>
TOMLIN,C (1997)

> <dsstox_substance_id>
DTXSID3034402

> <LogMolar>
-4.1626

$$$$
23422-53-9
  -INDIGO-01081615412D

 31 31  0  0  0  0  0  0  0  0999 V2000
    1.3857   -0.8001    0.0000 C   0  0  0  0  0  0  0  0  0  0  0  0
    2.7713    0.0000    0.0000 N   0  0  0  0  0  0  0  0  0  0  0  0
    4.1569   -0.7999    0.0000 C   0  0  0  0  0  0  0  0  0  0  0  0
    4.1569   -2.3999    0.0000 C   0  0  0  0  0  0  0  0  0  0  0  0
    2.7713   -3.2000    0.0000 H   0  0  0  0  0  0  0  0  0  0  0  0
    5.5427   -3.2000    0.0000 C   0  0  0  0  0  0  0  0  0  0  0  0
    5.5427   -4.8000    0.0000 H   0  0  0  0  0  0  0  0  0  0  0  0
    6.9283   -2.3999    0.0000 C   0  0  0  0  0  0  0  0  0  0  0  0
    8.3138   -3.2000    0.0000 H   0  0  0  0  0  0  0  0  0  0  0  0
    6.9283   -0.7999    0.0000 C   0  0  0  0  0  0  0  0  0  0  0  0
    8.3138    0.0000    0.0000 O   0  0  0  0  0  0  0  0  0  0  0  0
    9.6994   -0.8001    0.0000 C   0  0  0  0  0  0  0  0  0  0  0  0
   11.0853    0.0000    0.0000 N   0  0  0  0  0  0  0  0  0  0  0  0
   12.4708   -0.8001    0.0000 C   0  0  0  0  0  0  0  0  0  0  0  0
   13.8564   -1.6000    0.0000 H   0  0  0  0  0  0  0  0  0  0  0  0
   13.8564    0.0000    0.0000 H   0  0  0  0  0  0  0  0  0  0  0  0
   12.4708   -2.4001    0.0000 H   0  0  0  0  0  0  0  0  0  0  0  0
   11.0853    1.6000    0.0000 H   0  0  0  0  0  0  0  0  0  0  0  0
    9.6994   -2.4001    0.0000 O   0  0  0  0  0  0  0  0  0  0  0  0
    5.5427    0.0000    0.0000 C   0  0  0  0  0  0  0  0  0  0  0  0
    5.5427    1.6000    0.0000 H   0  0  0  0  0  0  0  0  0  0  0  0
   -0.0001    0.0000    0.0000 N   0  0  0  0  0  0  0  0  0  0  0  0
   -1.3857   -0.8001    0.0000 C   0  0  0  0  0  0  0  0  0  0  0  0
   -2.7713   -1.6000    0.0000 H   0  0  0  0  0  0  0  0  0  0  0  0
   -2.7713    0.0000    0.0000 H   0  0  0  0  0  0  0  0  0  0  0  0
   -1.3857   -2.4001    0.0000 H   0  0  0  0  0  0  0  0  0  0  0  0
   -0.0001    1.6000    0.0000 C   0  0  0  0  0  0  0  0  0  0  0  0
   -0.0001    3.2000    0.0000 H   0  0  0  0  0  0  0  0  0  0  0  0
   -1.3857    2.4001    0.0000 H   0  0  0  0  0  0  0  0  0  0  0  0
    1.3857    2.4001    0.0000 H   0  0  0  0  0  0  0  0  0  0  0  0
    1.3857   -2.4001    0.0000 H   0  0  0  0  0  0  0  0  0  0  0  0
  1  2  2  0  0  0  0
  2  3  1  0  0  0  0
  3  4  4  0  0  0  0
  4  5  1  0  0  0  0
  4  6  4  0  0  0  0
  6  7  1  0  0  0  0
  6  8  4  0  0  0  0
  8  9  1  0  0  0  0
  8 10  4  0  0  0  0
 10 11  1  0  0  0  0
 11 12  1  0  0  0  0
 12 13  1  0  0  0  0
 13 14  1  0  0  0  0
 14 15  1  0  0  0  0
 14 16  1  0  0  0  0
 14 17  1  0  0  0  0
 13 18  1  0  0  0  0
 12 19  2  0  0  0  0
 10 20  4  0  0  0  0
 20  3  4  0  0  0  0
 20 21  1  0  0  0  0
  1 22  1  0  0  0  0
 22 23  1  0  0  0  0
 23 24  1  0  0  0  0
 23 25  1  0  0  0  0
 23 26  1  0  0  0  0
 22 27  1  0  0  0  0
 27 28  1  0  0  0  0
 27 29  1  0  0  0  0
 27 30  1  0  0  0  0
  1 31  1  0  0  0  0
M  END
> <CAS>
23422-53-9

> <NAME>
FORMETANATE HYDROCHLORIDE

> <preferred_name>
Formetanate hydrochloride

> <iupac>
3-{[(dimethylamino)methylidene]amino}phenyl methylcarbamate hydrochloride (1:1)

> <SMILES>
Cl.CNC(=O)Oc1cc(ccc1)N=CN(C)C

> <Canonical_QSARr>
CNC(=O)Oc1cc(ccc1)N=CN(C)C

> <InChI_Code_QSARr>
InChI=1S/C11H15N3O2/c1-12-11(15)16-10-6-4-5-9(7-10)13-8-14(2)3/h4-8H,1-3H3,(H,12,15)/b13-8+

> <InChI Key_QSARr>
RMFNNCGOSPBBAD-MDWZMJQESA-N

> <Salt_Solvent>
Cl

> <WS Temperature>
25

> <WS Reference>
TOMLIN,C (1997)

> <dsstox_substance_id>
DTXSID4032405

> <LogMolar>
0.5037

$$$$
23564-05-8
  -INDIGO-01081615412D

 36 36  0  0  0  0  0  0  0  0999 V2000
   -2.4000    1.3857    0.0000 C   0  0  0  0  0  0  0  0  0  0  0  0
   -3.2001   -0.0001    0.0000 S   0  0  0  0  0  0  0  0  0  0  0  0
   -0.8001    1.3857    0.0000 N   0  0  0  0  0  0  0  0  0  0  0  0
    0.0000   -0.0001    0.0000 C   0  0  0  0  0  0  0  0  0  0  0  0
   -0.8001   -1.3857    0.0000 C   0  0  0  0  0  0  0  0  0  0  0  0
   -2.4000   -1.3857    0.0000 H   0  0  0  0  0  0  0  0  0  0  0  0
    0.0000   -2.7713    0.0000 C   0  0  0  0  0  0  0  0  0  0  0  0
   -0.8001   -4.1569    0.0000 H   0  0  0  0  0  0  0  0  0  0  0  0
    1.6000   -2.7713    0.0000 C   0  0  0  0  0  0  0  0  0  0  0  0
    2.4001   -4.1569    0.0000 H   0  0  0  0  0  0  0  0  0  0  0  0
    2.4001   -1.3857    0.0000 C   0  0  0  0  0  0  0  0  0  0  0  0
    4.0000   -1.3857    0.0000 H   0  0  0  0  0  0  0  0  0  0  0  0
    1.6000   -0.0001    0.0000 C   0  0  0  0  0  0  0  0  0  0  0  0
    2.4001    1.3857    0.0000 N   0  0  0  0  0  0  0  0  0  0  0  0
    4.0000    1.3857    0.0000 C   0  0  0  0  0  0  0  0  0  0  0  0
    4.8001   -0.0001    0.0000 S   0  0  0  0  0  0  0  0  0  0  0  0
    4.8001    2.7713    0.0000 N   0  0  0  0  0  0  0  0  0  0  0  0
    6.4000    2.7713    0.0000 C   0  0  0  0  0  0  0  0  0  0  0  0
    7.2001    4.1569    0.0000 O   0  0  0  0  0  0  0  0  0  0  0  0
    8.8001    4.1569    0.0000 C   0  0  0  0  0  0  0  0  0  0  0  0
   10.4000    4.1569    0.0000 H   0  0  0  0  0  0  0  0  0  0  0  0
    9.5999    5.5426    0.0000 H   0  0  0  0  0  0  0  0  0  0  0  0
    9.5999    2.7713    0.0000 H   0  0  0  0  0  0  0  0  0  0  0  0
    7.2001    1.3857    0.0000 O   0  0  0  0  0  0  0  0  0  0  0  0
    4.0000    4.1569    0.0000 H   0  0  0  0  0  0  0  0  0  0  0  0
    1.6000    2.7713    0.0000 H   0  0  0  0  0  0  0  0  0  0  0  0
    0.0000    2.7713    0.0000 H   0  0  0  0  0  0  0  0  0  0  0  0
   -3.2001    2.7713    0.0000 N   0  0  0  0  0  0  0  0  0  0  0  0
   -4.8000    2.7713    0.0000 C   0  0  0  0  0  0  0  0  0  0  0  0
   -5.6001    4.1569    0.0000 O   0  0  0  0  0  0  0  0  0  0  0  0
   -7.2001    4.1569    0.0000 C   0  0  0  0  0  0  0  0  0  0  0  0
   -8.8000    4.1569    0.0000 H   0  0  0  0  0  0  0  0  0  0  0  0
   -7.9999    5.5426    0.0000 H   0  0  0  0  0  0  0  0  0  0  0  0
   -7.9999    2.7713    0.0000 H   0  0  0  0  0  0  0  0  0  0  0  0
   -5.6001    1.3857    0.0000 O   0  0  0  0  0  0  0  0  0  0  0  0
   -2.4000    4.1569    0.0000 H   0  0  0  0  0  0  0  0  0  0  0  0
  1  2  2  0  0  0  0
  1  3  1  0  0  0  0
  3  4  1  0  0  0  0
  4  5  4  0  0  0  0
  5  6  1  0  0  0  0
  5  7  4  0  0  0  0
  7  8  1  0  0  0  0
  7  9  4  0  0  0  0
  9 10  1  0  0  0  0
  9 11  4  0  0  0  0
 11 12  1  0  0  0  0
 11 13  4  0  0  0  0
 13  4  4  0  0  0  0
 13 14  1  0  0  0  0
 14 15  1  0  0  0  0
 15 16  2  0  0  0  0
 15 17  1  0  0  0  0
 17 18  1  0  0  0  0
 18 19  1  0  0  0  0
 19 20  1  0  0  0  0
 20 21  1  0  0  0  0
 20 22  1  0  0  0  0
 20 23  1  0  0  0  0
 18 24  2  0  0  0  0
 17 25  1  0  0  0  0
 14 26  1  0  0  0  0
  3 27  1  0  0  0  0
  1 28  1  0  0  0  0
 28 29  1  0  0  0  0
 29 30  1  0  0  0  0
 30 31  1  0  0  0  0
 31 32  1  0  0  0  0
 31 33  1  0  0  0  0
 31 34  1  0  0  0  0
 29 35  2  0  0  0  0
 28 36  1  0  0  0  0
M  END
> <CAS>
23564-05-8

> <NAME>
THIOPHANATE-METHYL

> <preferred_name>
Thiophanate-methyl

> <iupac>
dimethyl (benzene-1,2-diyldicarbamothioyl)biscarbamate

> <SMILES>
COC(=O)NC(=S)Nc1ccccc1NC(=S)NC(=O)OC

> <Canonical_QSARr>
COC(=O)NC(=S)Nc1ccccc1NC(=S)NC(=O)OC

> <InChI_Code_QSARr>
InChI=1S/C12H14N4O4S2/c1-19-11(17)15-9(21)13-7-5-3-4-6-8(7)14-10(22)16-12(18)20-2/h3-6H,1-2H3,(H2,13,15,17,21)(H2,14,16,18,22)

> <InChI Key_QSARr>
QGHREAKMXXNCOA-UHFFFAOYSA-N

> <Salt_Solvent>
?

> <WS Temperature>
20

> <WS Reference>
HU,JY ET AL. (1997)

> <dsstox_substance_id>
DTXSID1024338

> <LogMolar>
-4.1097

$$$$
23687-23-2
  -INDIGO-01081615412D

 21 22  0  0  0  0  0  0  0  0999 V2000
   -4.0622    0.8000    0.0000 C   0  0  0  0  0  0  0  0  0  0  0  0
   -5.4478    1.6000    0.0000 N   0  0  0  1  0  0  0  0  0  0  0  0
   -6.8335    0.8000    0.0000 C   0  0  0  0  0  0  0  0  0  0  0  0
   -8.2191    1.6000    0.0000 H   0  0  0  0  0  0  0  0  0  0  0  0
   -6.8335   -0.8000    0.0000 N   0  0  0  1  0  0  0  0  0  0  0  0
   -8.2191   -1.6000    0.0000 H   0  0  0  0  0  0  0  0  0  0  0  0
   -5.4478   -1.6000    0.0000 C   0  0  0  0  0  0  0  0  0  0  0  0
   -5.4478   -3.2000    0.0000 H   0  0  0  0  0  0  0  0  0  0  0  0
   -4.0622   -0.8000    0.0000 C   0  0  0  0  0  0  0  0  0  0  0  0
   -2.5405   -1.2944    0.0000 N   0  0  0  1  0  0  0  0  0  0  0  0
   -1.6000   -0.0000    0.0000 C   0  0  0  0  0  0  0  0  0  0  0  0
    0.0001   -0.0000    0.0000 N   0  0  0  0  0  0  0  0  0  0  0  0
    0.8001    1.3857    0.0000 C   0  0  0  0  0  0  0  0  0  0  0  0
    1.6000    2.7713    0.0000 H   0  0  0  0  0  0  0  0  0  0  0  0
    2.4000    1.3857    0.0000 H   0  0  0  0  0  0  0  0  0  0  0  0
    0.0001    2.7713    0.0000 H   0  0  0  0  0  0  0  0  0  0  0  0
    0.8001   -1.3856    0.0000 C   0  0  0  0  0  0  0  0  0  0  0  0
    1.6000   -2.7713    0.0000 H   0  0  0  0  0  0  0  0  0  0  0  0
    2.4000   -1.3856    0.0000 H   0  0  0  0  0  0  0  0  0  0  0  0
    0.0001   -2.7713    0.0000 H   0  0  0  0  0  0  0  0  0  0  0  0
   -2.5405    1.2944    0.0000 N   0  0  0  1  0  0  0  0  0  0  0  0
  1  2  4  0  0  0  0
  2  3  4  0  0  0  0
  3  4  1  0  0  0  0
  3  5  4  0  0  0  0
  5  6  1  0  0  0  0
  5  7  4  0  0  0  0
  7  8  1  0  0  0  0
  7  9  4  0  0  0  0
  9  1  1  0  0  0  0
  9 10  4  0  0  0  0
 10 11  4  0  0  0  0
 11 12  1  0  0  0  0
 12 13  1  0  0  0  0
 13 14  1  0  0  0  0
 13 15  1  0  0  0  0
 13 16  1  0  0  0  0
 12 17  1  0  0  0  0
 17 18  1  0  0  0  0
 17 19  1  0  0  0  0
 17 20  1  0  0  0  0
 11 21  4  0  0  0  0
 21  1  4  0  0  0  0
M  END
> <CAS>
23687-23-2

> <NAME>
1H-Purin-8-amine, N,N-dimethyl-

> <preferred_name>


> <iupac>


> <SMILES>
CN(C)c1:[n]:c2:c:[nH]:c:[n]:c-2:[n]:1

> <Canonical_QSARr>
CN(C)c1:[n]:c2:c:[nH]:c:[n]:c-2:[n]:1

> <InChI_Code_QSARr>
InChI=1S/C7H9N5/c1-12(2)7-10-5-3-8-4-9-6(5)11-7/h3-4H,1-2H3,(H,8,9,10,11)

> <InChI Key_QSARr>
WNLBOWJFJNZYPN-UHFFFAOYSA-N

> <Salt_Solvent>
?

> <WS Temperature>
20

> <WS Reference>
BEILSTEIN

> <dsstox_substance_id>


> <LogMolar>
-1.3885

$$$$
23950-58-5
  -INDIGO-01081615412D

 27 27  0  0  0  0  0  0  0  0999 V2000
    0.0000   -1.6000    0.0000 C   0  0  0  0  0  0  0  0  0  0  0  0
    0.0000    0.0000    0.0000 C   0  0  0  0  0  0  0  0  0  0  0  0
    1.6000    0.0000    0.0000 C   0  0  0  0  0  0  0  0  0  0  0  0
    3.2000    0.0000    0.0000 H   0  0  0  0  0  0  0  0  0  0  0  0
    2.4000   -1.3856    0.0000 H   0  0  0  0  0  0  0  0  0  0  0  0
    2.4000    1.3856    0.0000 H   0  0  0  0  0  0  0  0  0  0  0  0
    0.0000    1.6000    0.0000 C   0  0  0  0  0  0  0  0  0  0  0  0
    0.0000    3.2000    0.0000 C   0  0  0  0  0  0  0  0  0  0  0  0
    0.0000    4.8000    0.0000 H   0  0  0  0  0  0  0  0  0  0  0  0
   -1.6000    0.0000    0.0000 N   0  0  0  0  0  0  0  0  0  0  0  0
   -2.4000    1.3856    0.0000 C   0  0  0  0  0  0  0  0  0  0  0  0
   -4.0000    1.3856    0.0000 C   0  0  0  0  0  0  0  0  0  0  0  0
   -4.8000    2.7713    0.0000 C   0  0  0  0  0  0  0  0  0  0  0  0
   -4.0000    4.1569    0.0000 H   0  0  0  0  0  0  0  0  0  0  0  0
   -6.4000    2.7713    0.0000 C   0  0  0  0  0  0  0  0  0  0  0  0
   -7.2000    4.1569    0.0000 Cl  0  0  0  0  0  0  0  0  0  0  0  0
   -7.2000    1.3856    0.0000 C   0  0  0  0  0  0  0  0  0  0  0  0
   -8.8000    1.3856    0.0000 H   0  0  0  0  0  0  0  0  0  0  0  0
   -6.4000    0.0000    0.0000 C   0  0  0  0  0  0  0  0  0  0  0  0
   -7.2000   -1.3856    0.0000 Cl  0  0  0  0  0  0  0  0  0  0  0  0
   -4.8000    0.0000    0.0000 C   0  0  0  0  0  0  0  0  0  0  0  0
   -4.0000   -1.3856    0.0000 H   0  0  0  0  0  0  0  0  0  0  0  0
   -1.6000    2.7713    0.0000 O   0  0  0  0  0  0  0  0  0  0  0  0
   -2.4000   -1.3856    0.0000 H   0  0  0  0  0  0  0  0  0  0  0  0
    0.0000   -3.2000    0.0000 H   0  0  0  0  0  0  0  0  0  0  0  0
    1.3856   -2.4001    0.0000 H   0  0  0  0  0  0  0  0  0  0  0  0
   -1.3856   -2.4001    0.0000 H   0  0  0  0  0  0  0  0  0  0  0  0
  1  2  1  0  0  0  0
  2  3  1  0  0  0  0
  3  4  1  0  0  0  0
  3  5  1  0  0  0  0
  3  6  1  0  0  0  0
  2  7  1  0  0  0  0
  7  8  3  0  0  0  0
  8  9  1  0  0  0  0
  2 10  1  0  0  0  0
 10 11  1  0  0  0  0
 11 12  1  0  0  0  0
 12 13  4  0  0  0  0
 13 14  1  0  0  0  0
 13 15  4  0  0  0  0
 15 16  1  0  0  0  0
 15 17  4  0  0  0  0
 17 18  1  0  0  0  0
 17 19  4  0  0  0  0
 19 20  1  0  0  0  0
 19 21  4  0  0  0  0
 21 12  4  0  0  0  0
 21 22  1  0  0  0  0
 11 23  2  0  0  0  0
 10 24  1  0  0  0  0
  1 25  1  0  0  0  0
  1 26  1  0  0  0  0
  1 27  1  0  0  0  0
M  END
> <CAS>
23950-58-5

> <NAME>
PRONAMIDE

> <preferred_name>
Propyzamide

> <iupac>
3,5-dichloro-N-(2-methylbut-3-yn-2-yl)benzamide

> <SMILES>
CC(C)(C#C)NC(=O)c1cc(Cl)cc(Cl)c1

> <Canonical_QSARr>
CC(C)(C#C)NC(=O)c1cc(Cl)cc(Cl)c1

> <InChI_Code_QSARr>
InChI=1S/C12H11Cl2NO/c1-4-12(2,3)15-11(16)8-5-9(13)7-10(14)6-8/h1,5-7H,2-3H3,(H,15,16)

> <InChI Key_QSARr>
PHNUZKMIPFFYSO-UHFFFAOYSA-N

> <Salt_Solvent>
?

> <WS Temperature>
25

> <WS Reference>
YALKOWSKY,SH & DANNENFELSER,RM (1992)

> <dsstox_substance_id>
DTXSID2020420

> <LogMolar>
-4.2324

$$$$
24106-05-6
  -INDIGO-01081615412D

 22 22  0  0  0  0  0  0  0  0999 V2000
    4.8000    0.0000    0.0000 Br  0  0  0  0  0  0  0  0  0  0  0  0
    3.2000    0.0000    0.0000 C   0  0  0  0  0  0  0  0  0  0  0  0
    2.4001    1.3856    0.0000 C   0  0  0  0  0  0  0  0  0  0  0  0
    3.2000    2.7713    0.0000 H   0  0  0  0  0  0  0  0  0  0  0  0
    0.8000    1.3856    0.0000 C   0  0  0  0  0  0  0  0  0  0  0  0
   -0.0000    2.7713    0.0000 H   0  0  0  0  0  0  0  0  0  0  0  0
   -0.0000    0.0000    0.0000 C   0  0  0  0  0  0  0  0  0  0  0  0
   -1.6000    0.0000    0.0000 N   0  0  0  0  0  0  0  0  0  0  0  0
   -2.3999    1.3856    0.0000 C   0  0  0  0  0  0  0  0  0  0  0  0
   -4.0000    1.3856    0.0000 C   0  0  0  0  0  0  0  0  0  0  0  0
   -5.6000    1.3856    0.0000 H   0  0  0  0  0  0  0  0  0  0  0  0
   -4.8000    2.7713    0.0000 H   0  0  0  0  0  0  0  0  0  0  0  0
   -4.8000    0.0000    0.0000 H   0  0  0  0  0  0  0  0  0  0  0  0
   -1.6000    2.7713    0.0000 O   0  0  0  0  0  0  0  0  0  0  0  0
   -2.3999   -1.3856    0.0000 H   0  0  0  0  0  0  0  0  0  0  0  0
    0.8000   -1.3856    0.0000 C   0  0  0  0  0  0  0  0  0  0  0  0
   -0.0000   -2.7713    0.0000 C   0  0  0  0  0  0  0  0  0  0  0  0
   -0.8000   -4.1569    0.0000 H   0  0  0  0  0  0  0  0  0  0  0  0
    0.8000   -4.1569    0.0000 H   0  0  0  0  0  0  0  0  0  0  0  0
   -1.6000   -2.7713    0.0000 H   0  0  0  0  0  0  0  0  0  0  0  0
    2.4001   -1.3856    0.0000 C   0  0  0  0  0  0  0  0  0  0  0  0
    3.2000   -2.7713    0.0000 H   0  0  0  0  0  0  0  0  0  0  0  0
  1  2  1  0  0  0  0
  2  3  4  0  0  0  0
  3  4  1  0  0  0  0
  3  5  4  0  0  0  0
  5  6  1  0  0  0  0
  5  7  4  0  0  0  0
  7  8  1  0  0  0  0
  8  9  1  0  0  0  0
  9 10  1  0  0  0  0
 10 11  1  0  0  0  0
 10 12  1  0  0  0  0
 10 13  1  0  0  0  0
  9 14  2  0  0  0  0
  8 15  1  0  0  0  0
  7 16  4  0  0  0  0
 16 17  1  0  0  0  0
 17 18  1  0  0  0  0
 17 19  1  0  0  0  0
 17 20  1  0  0  0  0
 16 21  4  0  0  0  0
 21  2  4  0  0  0  0
 21 22  1  0  0  0  0
M  END
> <CAS>
24106-05-6

> <NAME>
2-METHYL-4-BROMOACETANILIDE

> <preferred_name>
N-(4-Bromo-2-methylphenyl)acetamide

> <iupac>
C9H10BrNO

> <SMILES>
Cc1cc(Br)ccc1NC(C)=O

> <Canonical_QSARr>
Cc1cc(Br)ccc1NC(C)=O

> <InChI_Code_QSARr>
InChI=1S/C9H10BrNO/c1-6-5-8(10)3-4-9(6)11-7(2)12/h3-5H,1-2H3,(H,11,12)

> <InChI Key_QSARr>
IJZSFOIZVXCSFP-UHFFFAOYSA-N

> <Salt_Solvent>
?

> <WS Temperature>
20

> <WS Reference>
BEILSTEIN

> <dsstox_substance_id>
DTXSID70278532

> <LogMolar>
-1.756

$$$$
24579-73-5
  -INDIGO-01081615412D

 33 32  0  0  0  0  0  0  0  0999 V2000
    5.5426    1.6001    0.0000 C   0  0  0  0  0  0  0  0  0  0  0  0
    4.1570    2.4000    0.0000 N   0  0  0  0  0  0  0  0  0  0  0  0
    2.7712    1.6001    0.0000 C   0  0  0  0  0  0  0  0  0  0  0  0
    1.3856    0.8000    0.0000 C   0  0  0  0  0  0  0  0  0  0  0  0
    0.0001    0.0001    0.0000 C   0  0  0  0  0  0  0  0  0  0  0  0
   -1.3855   -0.8000    0.0000 N   0  0  0  0  0  0  0  0  0  0  0  0
   -1.3855   -2.4000    0.0000 C   0  0  0  0  0  0  0  0  0  0  0  0
   -1.3855   -4.0000    0.0000 H   0  0  0  0  0  0  0  0  0  0  0  0
   -2.7713   -3.2001    0.0000 H   0  0  0  0  0  0  0  0  0  0  0  0
    0.0001   -3.2001    0.0000 H   0  0  0  0  0  0  0  0  0  0  0  0
   -2.7713    0.0001    0.0000 C   0  0  0  0  0  0  0  0  0  0  0  0
   -4.1569    0.8000    0.0000 H   0  0  0  0  0  0  0  0  0  0  0  0
   -4.1569   -0.8000    0.0000 H   0  0  0  0  0  0  0  0  0  0  0  0
   -2.7713    1.6001    0.0000 H   0  0  0  0  0  0  0  0  0  0  0  0
   -0.7999    1.3856    0.0000 H   0  0  0  0  0  0  0  0  0  0  0  0
    0.8000   -1.3856    0.0000 H   0  0  0  0  0  0  0  0  0  0  0  0
    2.1856   -0.5856    0.0000 H   0  0  0  0  0  0  0  0  0  0  0  0
    0.5857    2.1856    0.0000 H   0  0  0  0  0  0  0  0  0  0  0  0
    1.9712    2.9856    0.0000 H   0  0  0  0  0  0  0  0  0  0  0  0
    3.5712    0.2144    0.0000 H   0  0  0  0  0  0  0  0  0  0  0  0
    4.1570    4.0000    0.0000 H   0  0  0  0  0  0  0  0  0  0  0  0
    6.9282    2.4000    0.0000 O   0  0  0  0  0  0  0  0  0  0  0  0
    8.3138    1.6001    0.0000 C   0  0  0  0  0  0  0  0  0  0  0  0
    9.6996    0.8000    0.0000 C   0  0  0  0  0  0  0  0  0  0  0  0
   11.0852   -0.0001    0.0000 C   0  0  0  0  0  0  0  0  0  0  0  0
   12.4708   -0.8000    0.0000 H   0  0  0  0  0  0  0  0  0  0  0  0
   12.4708    0.8000    0.0000 H   0  0  0  0  0  0  0  0  0  0  0  0
   11.0852   -1.6001    0.0000 H   0  0  0  0  0  0  0  0  0  0  0  0
   10.4996    2.1856    0.0000 H   0  0  0  0  0  0  0  0  0  0  0  0
    8.8994   -0.5856    0.0000 H   0  0  0  0  0  0  0  0  0  0  0  0
    9.1138    2.9856    0.0000 H   0  0  0  0  0  0  0  0  0  0  0  0
    7.5138    0.2144    0.0000 H   0  0  0  0  0  0  0  0  0  0  0  0
    5.5426   -0.0001    0.0000 O   0  0  0  0  0  0  0  0  0  0  0  0
  1  2  1  0  0  0  0
  2  3  1  0  0  0  0
  3  4  1  0  0  0  0
  4  5  1  0  0  0  0
  5  6  1  0  0  0  0
  6  7  1  0  0  0  0
  7  8  1  0  0  0  0
  7  9  1  0  0  0  0
  7 10  1  0  0  0  0
  6 11  1  0  0  0  0
 11 12  1  0  0  0  0
 11 13  1  0  0  0  0
 11 14  1  0  0  0  0
  5 15  1  0  0  0  0
  5 16  1  0  0  0  0
  4 17  1  0  0  0  0
  4 18  1  0  0  0  0
  3 19  1  0  0  0  0
  3 20  1  0  0  0  0
  2 21  1  0  0  0  0
  1 22  1  0  0  0  0
 22 23  1  0  0  0  0
 23 24  1  0  0  0  0
 24 25  1  0  0  0  0
 25 26  1  0  0  0  0
 25 27  1  0  0  0  0
 25 28  1  0  0  0  0
 24 29  1  0  0  0  0
 24 30  1  0  0  0  0
 23 31  1  0  0  0  0
 23 32  1  0  0  0  0
  1 33  2  0  0  0  0
M  END
> <CAS>
24579-73-5

> <NAME>
Propamocarb

> <preferred_name>
Propamocarb

> <iupac>
propyl [3-(dimethylamino)propyl]carbamate

> <SMILES>
CCCOC(=O)NCCCN(C)C

> <Canonical_QSARr>
CCCOC(=O)NCCCN(C)C

> <InChI_Code_QSARr>
InChI=1S/C9H20N2O2/c1-4-8-13-9(12)10-6-5-7-11(2)3/h4-8H2,1-3H3,(H,10,12)

> <InChI Key_QSARr>
WZZLDXDUQPOXNW-UHFFFAOYSA-N

> <Salt_Solvent>
?

> <WS Temperature>
20

> <WS Reference>
TOMLIN,C (1997); pH 7.0

> <dsstox_substance_id>
DTXSID1040295

> <LogMolar>
0.6795

$$$$
24851-65-8
  -INDIGO-01081615412D

 18 19  0  0  0  0  0  0  0  0999 V2000
   -2.7713    1.6000    0.0000 C   0  0  0  0  0  0  0  0  0  0  0  0
   -4.1570    2.4000    0.0000 N   0  0  0  1  0  0  0  0  0  0  0  0
   -5.5426    1.6000    0.0000 C   0  0  0  0  0  0  0  0  0  0  0  0
   -6.9282    2.4000    0.0000 H   0  0  0  0  0  0  0  0  0  0  0  0
   -5.5426    0.0000    0.0000 C   0  0  0  0  0  0  0  0  0  0  0  0
   -6.9282   -0.8000    0.0000 H   0  0  0  0  0  0  0  0  0  0  0  0
   -4.1570   -0.8000    0.0000 N   0  0  0  1  0  0  0  0  0  0  0  0
   -2.7713   -0.0000    0.0000 C   0  0  0  0  0  0  0  0  0  0  0  0
   -1.3856   -0.8000    0.0000 C   0  0  0  0  0  0  0  0  0  0  0  0
   -1.3856   -2.4000    0.0000 O   0  0  0  0  0  0  0  0  0  0  0  0
    0.0000    0.0000    0.0000 N   0  0  0  0  0  0  0  0  0  0  0  0
    1.3857   -0.8000    0.0000 C   0  0  0  0  0  0  0  0  0  0  0  0
    2.7713   -1.6000    0.0000 H   0  0  0  0  0  0  0  0  0  0  0  0
    2.7713    0.0000    0.0000 H   0  0  0  0  0  0  0  0  0  0  0  0
    1.3857   -2.4000    0.0000 H   0  0  0  0  0  0  0  0  0  0  0  0
    0.0000    1.6000    0.0000 C   0  0  0  0  0  0  0  0  0  0  0  0
    1.3857    2.4000    0.0000 H   0  0  0  0  0  0  0  0  0  0  0  0
   -1.3856    2.4000    0.0000 N   0  0  0  0  0  0  0  0  0  0  0  0
  1  2  4  0  0  0  0
  2  3  4  0  0  0  0
  3  4  1  0  0  0  0
  3  5  4  0  0  0  0
  5  6  1  0  0  0  0
  5  7  4  0  0  0  0
  7  8  4  0  0  0  0
  8  1  4  0  0  0  0
  8  9  1  0  0  0  0
  9 10  2  0  0  0  0
  9 11  1  0  0  0  0
 11 12  1  0  0  0  0
 12 13  1  0  0  0  0
 12 14  1  0  0  0  0
 12 15  1  0  0  0  0
 11 16  1  0  0  0  0
 16 17  1  0  0  0  0
 16 18  2  0  0  0  0
 18  1  1  0  0  0  0
M  END
> <CAS>
24851-65-8

> <NAME>
4(3H)-Pteridinone, 3-methyl-

> <preferred_name>


> <iupac>


> <SMILES>
CN1C=Nc2[n]cc[n]c2C1=O

> <Canonical_QSARr>
CN1C=Nc2[n]cc[n]c2C1=O

> <InChI_Code_QSARr>
InChI=1S/C7H6N4O/c1-11-4-10-6-5(7(11)12)8-2-3-9-6/h2-4H,1H3

> <InChI Key_QSARr>
ADZLJYXPHYDHJU-UHFFFAOYSA-N

> <Salt_Solvent>
?

> <WS Temperature>
20

> <WS Reference>
BEILSTEIN

> <dsstox_substance_id>


> <LogMolar>
-1.0549

$$$$
24910-68-7
  -INDIGO-01081615412D

 23 24  0  0  0  0  0  0  0  0999 V2000
    1.3857   -4.0000    0.0000 Cl  0  0  0  0  0  0  0  0  0  0  0  0
    1.3857   -2.4000    0.0000 C   0  0  0  0  0  0  0  0  0  0  0  0
    2.7712   -1.6000    0.0000 C   0  0  0  0  0  0  0  0  0  0  0  0
    4.1569   -2.4000    0.0000 H   0  0  0  0  0  0  0  0  0  0  0  0
    2.7712    0.0000    0.0000 C   0  0  0  0  0  0  0  0  0  0  0  0
    4.1569    0.8001    0.0000 Cl  0  0  0  0  0  0  0  0  0  0  0  0
    1.3857    0.8001    0.0000 C   0  0  0  0  0  0  0  0  0  0  0  0
    1.3857    2.4000    0.0000 H   0  0  0  0  0  0  0  0  0  0  0  0
    0.0000    0.0000    0.0000 C   0  0  0  0  0  0  0  0  0  0  0  0
   -1.3857    0.8001    0.0000 O   0  0  0  0  0  0  0  0  0  0  0  0
   -2.9857    0.8001    0.0000 C   0  0  0  0  0  0  0  0  0  0  0  0
   -3.7857    2.1856    0.0000 C   0  0  0  0  0  0  0  0  0  0  0  0
   -2.9857    3.5713    0.0000 H   0  0  0  0  0  0  0  0  0  0  0  0
   -5.3856    2.1856    0.0000 C   0  0  0  0  0  0  0  0  0  0  0  0
   -6.1856    3.5713    0.0000 H   0  0  0  0  0  0  0  0  0  0  0  0
   -6.1856    0.8001    0.0000 C   0  0  0  0  0  0  0  0  0  0  0  0
   -7.7856    0.8001    0.0000 H   0  0  0  0  0  0  0  0  0  0  0  0
   -5.3856   -0.5856    0.0000 C   0  0  0  0  0  0  0  0  0  0  0  0
   -6.1856   -1.9713    0.0000 H   0  0  0  0  0  0  0  0  0  0  0  0
   -3.7857   -0.5856    0.0000 C   0  0  0  0  0  0  0  0  0  0  0  0
   -2.9857   -1.9713    0.0000 H   0  0  0  0  0  0  0  0  0  0  0  0
    0.0000   -1.6000    0.0000 C   0  0  0  0  0  0  0  0  0  0  0  0
   -1.3857   -2.4000    0.0000 H   0  0  0  0  0  0  0  0  0  0  0  0
  1  2  1  0  0  0  0
  2  3  4  0  0  0  0
  3  4  1  0  0  0  0
  3  5  4  0  0  0  0
  5  6  1  0  0  0  0
  5  7  4  0  0  0  0
  7  8  1  0  0  0  0
  7  9  4  0  0  0  0
  9 10  1  0  0  0  0
 10 11  1  0  0  0  0
 11 12  4  0  0  0  0
 12 13  1  0  0  0  0
 12 14  4  0  0  0  0
 14 15  1  0  0  0  0
 14 16  4  0  0  0  0
 16 17  1  0  0  0  0
 16 18  4  0  0  0  0
 18 19  1  0  0  0  0
 18 20  4  0  0  0  0
 20 11  4  0  0  0  0
 20 21  1  0  0  0  0
  9 22  4  0  0  0  0
 22  2  4  0  0  0  0
 22 23  1  0  0  0  0
M  END
> <CAS>
24910-68-7

> <NAME>
3,5-Dichlorodiphenyl ether

> <preferred_name>
3,5-Dichlorodiphenyl ether

> <iupac>
1,3-dichloro-5-(phenoxy)benzene

> <SMILES>
Clc1cc(cc(Cl)c1)Oc1ccccc1

> <Canonical_QSARr>
Clc1cc(cc(Cl)c1)Oc1ccccc1

> <InChI_Code_QSARr>
InChI=1S/C12H8Cl2O/c13-9-6-10(14)8-12(7-9)15-11-4-2-1-3-5-11/h1-8H

> <InChI Key_QSARr>
LEKOWSSKXYFERR-UHFFFAOYSA-N

> <Salt_Solvent>
?

> <WS Temperature>
25

> <WS Reference>
KURZ,J & BALLSCHMITER,K (1999)

> <dsstox_substance_id>
DTXSID20179621

> <LogMolar>
-5.0605

$$$$
25059-80-7
  -INDIGO-01081615412D

 27 28  0  0  0  0  0  0  0  0999 V2000
    2.3781   -2.1413    0.0000 C   0  0  0  0  0  0  0  0  0  0  0  0
    1.1890   -1.0706    0.0000 C   0  0  0  0  0  0  0  0  0  0  0  0
   -0.0000    0.0000    0.0000 N   0  0  0  0  0  0  0  0  0  0  0  0
   -1.5651   -0.3327    0.0000 C   0  0  0  0  0  0  0  0  0  0  0  0
   -2.3650   -1.7182    0.0000 C   0  0  0  0  0  0  0  0  0  0  0  0
   -1.5651   -3.1039    0.0000 Cl  0  0  0  0  0  0  0  0  0  0  0  0
   -3.9650   -1.7182    0.0000 C   0  0  0  0  0  0  0  0  0  0  0  0
   -4.7650   -0.3327    0.0000 C   0  0  0  0  0  0  0  0  0  0  0  0
   -3.9650    1.0530    0.0000 C   0  0  0  0  0  0  0  0  0  0  0  0
   -4.7650    2.4386    0.0000 H   0  0  0  0  0  0  0  0  0  0  0  0
   -2.3650    1.0530    0.0000 C   0  0  0  0  0  0  0  0  0  0  0  0
   -1.2945    2.2420    0.0000 S   0  0  0  0  0  0  0  0  0  0  0  0
    0.1673    1.5913    0.0000 C   0  0  0  0  0  0  0  0  0  0  0  0
    1.5529    2.3912    0.0000 O   0  0  0  0  0  0  0  0  0  0  0  0
   -6.3650   -0.3327    0.0000 H   0  0  0  0  0  0  0  0  0  0  0  0
   -4.7650   -3.1039    0.0000 H   0  0  0  0  0  0  0  0  0  0  0  0
    2.2597    0.1184    0.0000 H   0  0  0  0  0  0  0  0  0  0  0  0
    0.1184   -2.2597    0.0000 H   0  0  0  0  0  0  0  0  0  0  0  0
    3.8997   -1.6468    0.0000 O   0  0  0  0  0  0  0  0  0  0  0  0
    5.0887   -2.7174    0.0000 C   0  0  0  0  0  0  0  0  0  0  0  0
    6.2779   -3.7881    0.0000 C   0  0  0  0  0  0  0  0  0  0  0  0
    7.4669   -4.8586    0.0000 H   0  0  0  0  0  0  0  0  0  0  0  0
    7.7995   -3.2936    0.0000 H   0  0  0  0  0  0  0  0  0  0  0  0
    5.9453   -5.3530    0.0000 H   0  0  0  0  0  0  0  0  0  0  0  0
    6.1595   -1.5284    0.0000 H   0  0  0  0  0  0  0  0  0  0  0  0
    4.0182   -3.9065    0.0000 H   0  0  0  0  0  0  0  0  0  0  0  0
    2.0455   -3.7063    0.0000 O   0  0  0  0  0  0  0  0  0  0  0  0
  1  2  1  0  0  0  0
  2  3  1  0  0  0  0
  3  4  1  0  0  0  0
  4  5  4  0  0  0  0
  5  6  1  0  0  0  0
  5  7  4  0  0  0  0
  7  8  4  0  0  0  0
  8  9  4  0  0  0  0
  9 10  1  0  0  0  0
  9 11  4  0  0  0  0
 11  4  4  0  0  0  0
 11 12  1  0  0  0  0
 12 13  1  0  0  0  0
 13  3  1  0  0  0  0
 13 14  2  0  0  0  0
  8 15  1  0  0  0  0
  7 16  1  0  0  0  0
  2 17  1  0  0  0  0
  2 18  1  0  0  0  0
  1 19  1  0  0  0  0
 19 20  1  0  0  0  0
 20 21  1  0  0  0  0
 21 22  1  0  0  0  0
 21 23  1  0  0  0  0
 21 24  1  0  0  0  0
 20 25  1  0  0  0  0
 20 26  1  0  0  0  0
  1 27  2  0  0  0  0
M  END
> <CAS>
25059-80-7

> <NAME>
BENAZOLIN-ETHYL

> <preferred_name>
Benazolin-ethyl

> <iupac>
ethyl (4-chloro-2-oxo-1,3-benzothiazol-3(2H)-yl)acetate

> <SMILES>
CCOC(=O)CN1C(=O)Sc2cccc(Cl)c12

> <Canonical_QSARr>
CCOC(=O)CN1C(=O)Sc2cccc(Cl)c12

> <InChI_Code_QSARr>
InChI=1S/C11H10ClNO3S/c1-2-16-9(14)6-13-10-7(12)4-3-5-8(10)17-11(13)15/h3-5H,2,6H2,1H3

> <InChI Key_QSARr>
WQRCEBAZAUAUQC-UHFFFAOYSA-N

> <Salt_Solvent>
?

> <WS Temperature>
20

> <WS Reference>
TOMLIN,C (1997)

> <dsstox_substance_id>
DTXSID7041621

> <LogMolar>
-3.762

$$$$
25319-90-8
  -INDIGO-01081615412D

 28 28  0  0  0  0  0  0  0  0999 V2000
   -8.3138   -1.6000    0.0000 C   0  0  0  0  0  0  0  0  0  0  0  0
   -6.9281   -0.8001    0.0000 S   0  0  0  0  0  0  0  0  0  0  0  0
   -5.5426   -1.6000    0.0000 C   0  0  0  0  0  0  0  0  0  0  0  0
   -5.5426   -3.2000    0.0000 O   0  0  0  0  0  0  0  0  0  0  0  0
   -4.1568   -0.8001    0.0000 C   0  0  0  0  0  0  0  0  0  0  0  0
   -2.7713    0.0000    0.0000 O   0  0  0  0  0  0  0  0  0  0  0  0
   -1.3855   -0.7999    0.0000 C   0  0  0  0  0  0  0  0  0  0  0  0
   -1.3855   -2.4001    0.0000 C   0  0  0  0  0  0  0  0  0  0  0  0
   -2.7713   -3.2000    0.0000 H   0  0  0  0  0  0  0  0  0  0  0  0
    0.0000   -3.2000    0.0000 C   0  0  0  0  0  0  0  0  0  0  0  0
    0.0000   -4.8000    0.0000 H   0  0  0  0  0  0  0  0  0  0  0  0
    1.3857   -2.3999    0.0000 C   0  0  0  0  0  0  0  0  0  0  0  0
    2.7713   -3.2000    0.0000 Cl  0  0  0  0  0  0  0  0  0  0  0  0
    1.3857   -0.7999    0.0000 C   0  0  0  0  0  0  0  0  0  0  0  0
    2.7713    0.0000    0.0000 H   0  0  0  0  0  0  0  0  0  0  0  0
    0.0000    0.0000    0.0000 C   0  0  0  0  0  0  0  0  0  0  0  0
    0.0000    1.6000    0.0000 C   0  0  0  0  0  0  0  0  0  0  0  0
    0.0000    3.2000    0.0000 H   0  0  0  0  0  0  0  0  0  0  0  0
    1.3857    2.4001    0.0000 H   0  0  0  0  0  0  0  0  0  0  0  0
   -1.3855    2.4001    0.0000 H   0  0  0  0  0  0  0  0  0  0  0  0
   -4.9569    0.5856    0.0000 H   0  0  0  0  0  0  0  0  0  0  0  0
   -3.3570   -2.1856    0.0000 H   0  0  0  0  0  0  0  0  0  0  0  0
   -9.6996   -2.4001    0.0000 C   0  0  0  0  0  0  0  0  0  0  0  0
  -11.0851   -3.2000    0.0000 H   0  0  0  0  0  0  0  0  0  0  0  0
  -11.0851   -1.6000    0.0000 H   0  0  0  0  0  0  0  0  0  0  0  0
   -9.6996   -4.0001    0.0000 H   0  0  0  0  0  0  0  0  0  0  0  0
   -9.1139   -0.2144    0.0000 H   0  0  0  0  0  0  0  0  0  0  0  0
   -7.5138   -2.9856    0.0000 H   0  0  0  0  0  0  0  0  0  0  0  0
  1  2  1  0  0  0  0
  2  3  1  0  0  0  0
  3  4  2  0  0  0  0
  3  5  1  0  0  0  0
  5  6  1  0  0  0  0
  6  7  1  0  0  0  0
  7  8  4  0  0  0  0
  8  9  1  0  0  0  0
  8 10  4  0  0  0  0
 10 11  1  0  0  0  0
 10 12  4  0  0  0  0
 12 13  1  0  0  0  0
 12 14  4  0  0  0  0
 14 15  1  0  0  0  0
 14 16  4  0  0  0  0
 16  7  4  0  0  0  0
 16 17  1  0  0  0  0
 17 18  1  0  0  0  0
 17 19  1  0  0  0  0
 17 20  1  0  0  0  0
  5 21  1  0  0  0  0
  5 22  1  0  0  0  0
  1 23  1  0  0  0  0
 23 24  1  0  0  0  0
 23 25  1  0  0  0  0
 23 26  1  0  0  0  0
  1 27  1  0  0  0  0
  1 28  1  0  0  0  0
M  END
> <CAS>
25319-90-8

> <NAME>
MCPA-thioethyl

> <preferred_name>
MCPA-thioethyl

> <iupac>
S-ethyl (4-chloro-2-methylphenoxy)ethanethioate

> <SMILES>
Cc1cc(Cl)ccc1OCC(=O)SCC

> <Canonical_QSARr>
Cc1cc(Cl)ccc1OCC(=O)SCC

> <InChI_Code_QSARr>
InChI=1S/C11H13ClO2S/c1-3-15-11(13)7-14-10-5-4-9(12)6-8(10)2/h4-6H,3,7H2,1-2H3

> <InChI Key_QSARr>
AZFKQCNGMSSWDS-UHFFFAOYSA-N

> <Salt_Solvent>
?

> <WS Temperature>
25

> <WS Reference>
TOMLIN,C (1997)

> <dsstox_substance_id>
DTXSID0042115

> <LogMolar>
-5.027

$$$$
25640-78-2
  -INDIGO-01081615412D

 31 32  0  0  0  0  0  0  0  0999 V2000
   -0.0001    0.0001    0.0000 C   0  0  0  0  0  0  0  0  0  0  0  0
    0.7999    1.3856    0.0000 C   0  0  0  0  0  0  0  0  0  0  0  0
    1.6001    2.7713    0.0000 H   0  0  0  0  0  0  0  0  0  0  0  0
   -0.0001    2.7713    0.0000 H   0  0  0  0  0  0  0  0  0  0  0  0
    2.4001    1.3856    0.0000 H   0  0  0  0  0  0  0  0  0  0  0  0
   -1.5035    0.5472    0.0000 C   0  0  0  0  0  0  0  0  0  0  0  0
   -3.0071    1.0944    0.0000 H   0  0  0  0  0  0  0  0  0  0  0  0
   -1.7813    2.1229    0.0000 H   0  0  0  0  0  0  0  0  0  0  0  0
   -0.2779    1.5757    0.0000 H   0  0  0  0  0  0  0  0  0  0  0  0
   -0.5473   -1.5036    0.0000 C   0  0  0  0  0  0  0  0  0  0  0  0
   -2.1473   -1.5036    0.0000 C   0  0  0  0  0  0  0  0  0  0  0  0
   -2.9473   -0.1179    0.0000 H   0  0  0  0  0  0  0  0  0  0  0  0
   -2.9473   -2.8891    0.0000 C   0  0  0  0  0  0  0  0  0  0  0  0
   -4.5472   -2.8891    0.0000 H   0  0  0  0  0  0  0  0  0  0  0  0
   -2.1473   -4.2748    0.0000 C   0  0  0  0  0  0  0  0  0  0  0  0
   -2.9473   -5.6605    0.0000 H   0  0  0  0  0  0  0  0  0  0  0  0
   -0.5473   -4.2748    0.0000 C   0  0  0  0  0  0  0  0  0  0  0  0
    0.2527   -5.6605    0.0000 H   0  0  0  0  0  0  0  0  0  0  0  0
    0.2527   -2.8891    0.0000 C   0  0  0  0  0  0  0  0  0  0  0  0
    1.8285   -3.1669    0.0000 C   0  0  0  0  0  0  0  0  0  0  0  0
    2.8570   -1.9413    0.0000 C   0  0  0  0  0  0  0  0  0  0  0  0
    2.5791   -0.3656    0.0000 H   0  0  0  0  0  0  0  0  0  0  0  0
    4.4326   -2.2192    0.0000 C   0  0  0  0  0  0  0  0  0  0  0  0
    5.4611   -0.9935    0.0000 H   0  0  0  0  0  0  0  0  0  0  0  0
    4.9798   -3.7227    0.0000 C   0  0  0  0  0  0  0  0  0  0  0  0
    6.5555   -4.0005    0.0000 H   0  0  0  0  0  0  0  0  0  0  0  0
    3.9514   -4.9484    0.0000 C   0  0  0  0  0  0  0  0  0  0  0  0
    4.4986   -6.4518    0.0000 H   0  0  0  0  0  0  0  0  0  0  0  0
    2.3757   -4.6705    0.0000 C   0  0  0  0  0  0  0  0  0  0  0  0
    1.3473   -5.8962    0.0000 H   0  0  0  0  0  0  0  0  0  0  0  0
    1.5035   -0.5473    0.0000 H   0  0  0  0  0  0  0  0  0  0  0  0
  1  2  1  0  0  0  0
  2  3  1  0  0  0  0
  2  4  1  0  0  0  0
  2  5  1  0  0  0  0
  1  6  1  0  0  0  0
  6  7  1  0  0  0  0
  6  8  1  0  0  0  0
  6  9  1  0  0  0  0
  1 10  1  0  0  0  0
 10 11  4  0  0  0  0
 11 12  1  0  0  0  0
 11 13  4  0  0  0  0
 13 14  1  0  0  0  0
 13 15  4  0  0  0  0
 15 16  1  0  0  0  0
 15 17  4  0  0  0  0
 17 18  1  0  0  0  0
 17 19  4  0  0  0  0
 19 10  4  0  0  0  0
 19 20  1  0  0  0  0
 20 21  4  0  0  0  0
 21 22  1  0  0  0  0
 21 23  4  0  0  0  0
 23 24  1  0  0  0  0
 23 25  4  0  0  0  0
 25 26  1  0  0  0  0
 25 27  4  0  0  0  0
 27 28  1  0  0  0  0
 27 29  4  0  0  0  0
 29 20  4  0  0  0  0
 29 30  1  0  0  0  0
  1 31  1  0  0  0  0
M  END
> <CAS>
25640-78-2

> <NAME>
ISOPROPYLBIPHENYL

> <preferred_name>
1,1'-Biphenyl, 2-(1-methylethyl)-

> <iupac>
1-phenyl-2-propan-2-ylbenzene

> <SMILES>
CC(C)c1ccccc1-c1ccccc1

> <Canonical_QSARr>
CC(C)c1ccccc1-c1ccccc1

> <InChI_Code_QSARr>
InChI=1S/C15H16/c1-12(2)14-10-6-7-11-15(14)13-8-4-3-5-9-13/h3-12H,1-2H3

> <InChI Key_QSARr>
HKTCLPBBJDIBGF-UHFFFAOYSA-N

> <Salt_Solvent>
?

> <WS Temperature>
25

> <WS Reference>
ADDISON,RF ET AL. (1983)

> <dsstox_substance_id>
DTXSID10173138

> <LogMolar>
-5.5147

$$$$
26225-79-6
  -INDIGO-01081615412D

 37 38  0  0  0  0  0  0  0  0999 V2000
   -7.0642   -0.4944    0.0000 S   0  0  0  0  0  0  0  0  0  0  0  0
   -8.4498   -1.2944    0.0000 C   0  0  0  0  0  0  0  0  0  0  0  0
   -9.8355   -2.0944    0.0000 H   0  0  0  0  0  0  0  0  0  0  0  0
   -9.8355   -0.4944    0.0000 H   0  0  0  0  0  0  0  0  0  0  0  0
   -8.4498   -2.8945    0.0000 H   0  0  0  0  0  0  0  0  0  0  0  0
   -7.8642    0.8912    0.0000 O   0  0  0  0  0  0  0  0  0  0  0  0
   -6.2643   -1.8800    0.0000 O   0  0  0  0  0  0  0  0  0  0  0  0
   -5.6787    0.3056    0.0000 O   0  0  0  0  0  0  0  0  0  0  0  0
   -4.2930   -0.4944    0.0000 C   0  0  0  0  0  0  0  0  0  0  0  0
   -4.2930   -2.0944    0.0000 C   0  0  0  0  0  0  0  0  0  0  0  0
   -5.6787   -2.8945    0.0000 H   0  0  0  0  0  0  0  0  0  0  0  0
   -2.9073   -2.8945    0.0000 C   0  0  0  0  0  0  0  0  0  0  0  0
   -2.9073   -4.4945    0.0000 H   0  0  0  0  0  0  0  0  0  0  0  0
   -1.5218   -2.0944    0.0000 C   0  0  0  0  0  0  0  0  0  0  0  0
    0.0000   -2.5889    0.0000 O   0  0  0  0  0  0  0  0  0  0  0  0
    0.9405   -1.2944    0.0000 C   0  0  0  0  0  0  0  0  0  0  0  0
    2.1294   -2.3651    0.0000 O   0  0  0  0  0  0  0  0  0  0  0  0
    1.7967   -3.9301    0.0000 C   0  0  0  0  0  0  0  0  0  0  0  0
    1.4643   -5.4952    0.0000 C   0  0  0  0  0  0  0  0  0  0  0  0
    1.1316   -7.0601    0.0000 H   0  0  0  0  0  0  0  0  0  0  0  0
    2.6532   -6.5657    0.0000 H   0  0  0  0  0  0  0  0  0  0  0  0
   -0.0576   -5.9895    0.0000 H   0  0  0  0  0  0  0  0  0  0  0  0
    3.3619   -4.2628    0.0000 H   0  0  0  0  0  0  0  0  0  0  0  0
    0.2318   -3.5973    0.0000 H   0  0  0  0  0  0  0  0  0  0  0  0
    0.0000   -0.0000    0.0000 C   0  0  0  0  0  0  0  0  0  0  0  0
    1.3857    0.8001    0.0000 C   0  0  0  0  0  0  0  0  0  0  0  0
    2.7712    1.6000    0.0000 H   0  0  0  0  0  0  0  0  0  0  0  0
    1.3857    2.4001    0.0000 H   0  0  0  0  0  0  0  0  0  0  0  0
    2.8892    0.2527    0.0000 H   0  0  0  0  0  0  0  0  0  0  0  0
   -0.6508    1.4617    0.0000 C   0  0  0  0  0  0  0  0  0  0  0  0
   -1.3015    2.9233    0.0000 H   0  0  0  0  0  0  0  0  0  0  0  0
    0.2896    2.7561    0.0000 H   0  0  0  0  0  0  0  0  0  0  0  0
   -2.2419    1.6289    0.0000 H   0  0  0  0  0  0  0  0  0  0  0  0
   -1.5218   -0.4944    0.0000 C   0  0  0  0  0  0  0  0  0  0  0  0
   -2.9073    0.3056    0.0000 C   0  0  0  0  0  0  0  0  0  0  0  0
   -3.4546    1.8091    0.0000 H   0  0  0  0  0  0  0  0  0  0  0  0
    2.5054   -0.9617    0.0000 H   0  0  0  0  0  0  0  0  0  0  0  0
  1  2  1  0  0  0  0
  2  3  1  0  0  0  0
  2  4  1  0  0  0  0
  2  5  1  0  0  0  0
  1  6  2  0  0  0  0
  1  7  2  0  0  0  0
  1  8  1  0  0  0  0
  8  9  1  0  0  0  0
  9 10  4  0  0  0  0
 10 11  1  0  0  0  0
 10 12  4  0  0  0  0
 12 13  1  0  0  0  0
 12 14  4  0  0  0  0
 14 15  1  0  0  0  0
 15 16  1  0  0  0  0
 16 17  1  0  0  0  0
 17 18  1  0  0  0  0
 18 19  1  0  0  0  0
 19 20  1  0  0  0  0
 19 21  1  0  0  0  0
 19 22  1  0  0  0  0
 18 23  1  0  0  0  0
 18 24  1  0  0  0  0
 16 25  1  0  0  0  0
 25 26  1  0  0  0  0
 26 27  1  0  0  0  0
 26 28  1  0  0  0  0
 26 29  1  0  0  0  0
 25 30  1  0  0  0  0
 30 31  1  0  0  0  0
 30 32  1  0  0  0  0
 30 33  1  0  0  0  0
 25 34  1  0  0  0  0
 34 14  4  0  0  0  0
 34 35  4  0  0  0  0
 35  9  4  0  0  0  0
 35 36  1  0  0  0  0
 16 37  1  0  0  0  0
M  END
> <CAS>
26225-79-6

> <NAME>
ETHOFUMESATE

> <preferred_name>
Ethofumesate

> <iupac>
2-ethoxy-3,3-dimethyl-2,3-dihydro-1-benzofuran-5-yl methanesulfonate

> <SMILES>
CCOC1Oc2ccc(cc2C1(C)C)OS(C)(=O)=O

> <Canonical_QSARr>
CCOC1Oc2ccc(cc2C1(C)C)OS(C)(=O)=O

> <InChI_Code_QSARr>
InChI=1S/C13H18O5S/c1-5-16-12-13(2,3)10-8-9(18-19(4,14)15)6-7-11(10)17-12/h6-8,12H,5H2,1-4H3

> <InChI Key_QSARr>
IRCMYGHHKLLGHV-UHFFFAOYSA-N

> <Salt_Solvent>
?

> <WS Temperature>
25

> <WS Reference>
TOMLIN,C (2003)

> <dsstox_substance_id>
DTXSID8034580

> <LogMolar>
-3.58695

$$$$
26530-20-1
  -INDIGO-01081615412D

 33 33  0  0  0  0  0  0  0  0999 V2000
    7.2819    1.3312    0.0000 O   0  0  0  0  0  0  0  0  0  0  0  0
    7.4492   -0.2600    0.0000 C   0  0  0  0  0  0  0  0  0  0  0  0
    6.2601   -1.3306    0.0000 N   0  0  0  0  0  0  0  0  0  0  0  0
    4.6950   -0.9980    0.0000 C   0  0  0  0  0  0  0  0  0  0  0  0
    3.1299   -0.6654    0.0000 C   0  0  0  0  0  0  0  0  0  0  0  0
    1.5651   -0.3326    0.0000 C   0  0  0  0  0  0  0  0  0  0  0  0
    0.0000    0.0000    0.0000 C   0  0  0  0  0  0  0  0  0  0  0  0
   -1.5651    0.3326    0.0000 C   0  0  0  0  0  0  0  0  0  0  0  0
   -3.1302    0.6653    0.0000 C   0  0  0  0  0  0  0  0  0  0  0  0
   -4.6950    0.9980    0.0000 C   0  0  0  0  0  0  0  0  0  0  0  0
   -6.2601    1.3307    0.0000 C   0  0  0  0  0  0  0  0  0  0  0  0
   -7.8252    1.6633    0.0000 H   0  0  0  0  0  0  0  0  0  0  0  0
   -7.3308    0.1416    0.0000 H   0  0  0  0  0  0  0  0  0  0  0  0
   -6.7545    2.8523    0.0000 H   0  0  0  0  0  0  0  0  0  0  0  0
   -5.0276   -0.5671    0.0000 H   0  0  0  0  0  0  0  0  0  0  0  0
   -4.3623    2.5630    0.0000 H   0  0  0  0  0  0  0  0  0  0  0  0
   -3.4628   -0.8997    0.0000 H   0  0  0  0  0  0  0  0  0  0  0  0
   -2.7975    2.2304    0.0000 H   0  0  0  0  0  0  0  0  0  0  0  0
   -1.8977   -1.2324    0.0000 H   0  0  0  0  0  0  0  0  0  0  0  0
   -1.2324    1.8977    0.0000 H   0  0  0  0  0  0  0  0  0  0  0  0
   -0.3326   -1.5650    0.0000 H   0  0  0  0  0  0  0  0  0  0  0  0
    0.3327    1.5650    0.0000 H   0  0  0  0  0  0  0  0  0  0  0  0
    1.2325   -1.8977    0.0000 H   0  0  0  0  0  0  0  0  0  0  0  0
    1.8978    1.2324    0.0000 H   0  0  0  0  0  0  0  0  0  0  0  0
    2.7973   -2.2304    0.0000 H   0  0  0  0  0  0  0  0  0  0  0  0
    3.4626    0.8998    0.0000 H   0  0  0  0  0  0  0  0  0  0  0  0
    4.3624   -2.5630    0.0000 H   0  0  0  0  0  0  0  0  0  0  0  0
    5.0277    0.5670    0.0000 H   0  0  0  0  0  0  0  0  0  0  0  0
    6.9108   -2.7923    0.0000 S   0  0  0  0  0  0  0  0  0  0  0  0
    8.5022   -2.6251    0.0000 C   0  0  0  0  0  0  0  0  0  0  0  0
    9.5728   -3.8141    0.0000 H   0  0  0  0  0  0  0  0  0  0  0  0
    8.8348   -1.0600    0.0000 C   0  0  0  0  0  0  0  0  0  0  0  0
   10.2965   -0.4092    0.0000 H   0  0  0  0  0  0  0  0  0  0  0  0
  1  2  2  0  0  0  0
  2  3  1  0  0  0  0
  3  4  1  0  0  0  0
  4  5  1  0  0  0  0
  5  6  1  0  0  0  0
  6  7  1  0  0  0  0
  7  8  1  0  0  0  0
  8  9  1  0  0  0  0
  9 10  1  0  0  0  0
 10 11  1  0  0  0  0
 11 12  1  0  0  0  0
 11 13  1  0  0  0  0
 11 14  1  0  0  0  0
 10 15  1  0  0  0  0
 10 16  1  0  0  0  0
  9 17  1  0  0  0  0
  9 18  1  0  0  0  0
  8 19  1  0  0  0  0
  8 20  1  0  0  0  0
  7 21  1  0  0  0  0
  7 22  1  0  0  0  0
  6 23  1  0  0  0  0
  6 24  1  0  0  0  0
  5 25  1  0  0  0  0
  5 26  1  0  0  0  0
  4 27  1  0  0  0  0
  4 28  1  0  0  0  0
  3 29  1  0  0  0  0
 29 30  1  0  0  0  0
 30 31  1  0  0  0  0
 30 32  2  0  0  0  0
 32  2  1  0  0  0  0
 32 33  1  0  0  0  0
M  END
> <CAS>
26530-20-1

> <NAME>
3(2H)-ISOTHIAZOLONE, 2-OCTYL-

> <preferred_name>
Octhilinone

> <iupac>
2-octyl-1,2-thiazol-3(2H)-one

> <SMILES>
CCCCCCCCN1SC=CC1=O

> <Canonical_QSARr>
CCCCCCCCN1SC=CC1=O

> <InChI_Code_QSARr>
InChI=1S/C11H19NOS/c1-2-3-4-5-6-7-9-12-11(13)8-10-14-12/h8,10H,2-7,9H2,1H3

> <InChI Key_QSARr>
JPMIIZHYYWMHDT-UHFFFAOYSA-N

> <Salt_Solvent>
?

> <WS Temperature>
25

> <WS Reference>
TOMLIN,C (1994)

> <dsstox_substance_id>
DTXSID1025805

> <LogMolar>
-2.6301

$$$$
26786-28-7
  -INDIGO-01081615412D

 21 22  0  0  0  0  0  0  0  0999 V2000
    6.4000    0.0000    0.0000 Br  0  0  0  0  0  0  0  0  0  0  0  0
    4.8000    0.0000    0.0000 C   0  0  0  0  0  0  0  0  0  0  0  0
    4.0000    1.3856    0.0000 C   0  0  0  0  0  0  0  0  0  0  0  0
    4.8000    2.7713    0.0000 H   0  0  0  0  0  0  0  0  0  0  0  0
    2.4001    1.3856    0.0000 N   0  0  0  0  0  0  0  0  0  0  0  0
    1.6001   -0.0000    0.0000 C   0  0  0  0  0  0  0  0  0  0  0  0
   -0.0001   -0.0000    0.0000 C   0  0  0  0  0  0  0  0  0  0  0  0
   -0.8001    1.3856    0.0000 C   0  0  0  0  0  0  0  0  0  0  0  0
   -0.0001    2.7713    0.0000 H   0  0  0  0  0  0  0  0  0  0  0  0
   -2.4000    1.3856    0.0000 C   0  0  0  0  0  0  0  0  0  0  0  0
   -3.2000    2.7713    0.0000 H   0  0  0  0  0  0  0  0  0  0  0  0
   -3.2000   -0.0000    0.0000 C   0  0  0  0  0  0  0  0  0  0  0  0
   -4.8000   -0.0000    0.0000 H   0  0  0  0  0  0  0  0  0  0  0  0
   -2.4000   -1.3856    0.0000 C   0  0  0  0  0  0  0  0  0  0  0  0
   -3.2000   -2.7713    0.0000 H   0  0  0  0  0  0  0  0  0  0  0  0
   -0.8001   -1.3856    0.0000 C   0  0  0  0  0  0  0  0  0  0  0  0
   -0.0001   -2.7713    0.0000 H   0  0  0  0  0  0  0  0  0  0  0  0
    2.4001   -1.3856    0.0000 N   0  0  0  0  0  0  0  0  0  0  0  0
    1.6001   -2.7713    0.0000 H   0  0  0  0  0  0  0  0  0  0  0  0
    4.0000   -1.3856    0.0000 C   0  0  0  0  0  0  0  0  0  0  0  0
    4.8000   -2.7713    0.0000 O   0  0  0  0  0  0  0  0  0  0  0  0
  1  2  1  0  0  0  0
  2  3  2  0  0  0  0
  3  4  1  0  0  0  0
  3  5  1  0  0  0  0
  5  6  2  0  0  0  0
  6  7  1  0  0  0  0
  7  8  4  0  0  0  0
  8  9  1  0  0  0  0
  8 10  4  0  0  0  0
 10 11  1  0  0  0  0
 10 12  4  0  0  0  0
 12 13  1  0  0  0  0
 12 14  4  0  0  0  0
 14 15  1  0  0  0  0
 14 16  4  0  0  0  0
 16  7  4  0  0  0  0
 16 17  1  0  0  0  0
  6 18  1  0  0  0  0
 18 19  1  0  0  0  0
 18 20  1  0  0  0  0
 20  2  1  0  0  0  0
 20 21  2  0  0  0  0
M  END
> <CAS>
26786-28-7

> <NAME>
4(1H)-Pyrimidinone, 5-bromo-2-phenyl-

> <preferred_name>
PUBCHEM_23424243

> <iupac>
C10H7BrN2O

> <SMILES>
O=C1NC(=NC=C1Br)c1ccccc1

> <Canonical_QSARr>
O=C1NC(=NC=C1Br)c1ccccc1

> <InChI_Code_QSARr>
InChI=1S/C10H7BrN2O/c11-8-6-12-9(13-10(8)14)7-4-2-1-3-5-7/h1-6H,(H,12,13,14)

> <InChI Key_QSARr>
MWZGHIGOSHTXGY-UHFFFAOYSA-N

> <Salt_Solvent>
?

> <WS Temperature>


> <WS Reference>
BEILSTEIN

> <dsstox_substance_id>
DTXSID90633962

> <LogMolar>
-3.4792

$$$$
27541-88-4
  -INDIGO-01081615412D

 25 26  0  0  0  0  0  0  0  0999 V2000
    2.7712   -1.6000    0.0000 C   0  0  0  0  0  0  0  0  0  0  0  0
    1.3857   -2.4000    0.0000 C   0  0  0  0  0  0  0  0  0  0  0  0
    1.3857   -4.0000    0.0000 H   0  0  0  0  0  0  0  0  0  0  0  0
    0.0000   -1.6000    0.0000 C   0  0  0  0  0  0  0  0  0  0  0  0
   -1.3857   -2.4000    0.0000 C   0  0  0  0  0  0  0  0  0  0  0  0
   -1.3857   -4.0000    0.0000 O   0  0  0  0  0  0  0  0  0  0  0  0
   -2.7712   -1.6000    0.0000 C   0  0  0  0  0  0  0  0  0  0  0  0
   -4.1569   -2.4000    0.0000 Cl  0  0  0  0  0  0  0  0  0  0  0  0
   -2.7712   -0.0000    0.0000 C   0  0  0  0  0  0  0  0  0  0  0  0
   -4.1569    0.8000    0.0000 N   0  0  0  0  0  0  0  0  0  0  0  0
   -5.5426   -0.0000    0.0000 C   0  0  0  0  0  0  0  0  0  0  0  0
   -5.5426   -1.6000    0.0000 O   0  0  0  0  0  0  0  0  0  0  0  0
   -6.9281    0.8000    0.0000 C   0  0  0  0  0  0  0  0  0  0  0  0
   -8.3138    1.6000    0.0000 Cl  0  0  0  0  0  0  0  0  0  0  0  0
   -8.3138   -0.0000    0.0000 Cl  0  0  0  0  0  0  0  0  0  0  0  0
   -6.9281    2.4000    0.0000 H   0  0  0  0  0  0  0  0  0  0  0  0
   -4.1569    2.4000    0.0000 H   0  0  0  0  0  0  0  0  0  0  0  0
   -1.3857    0.8000    0.0000 C   0  0  0  0  0  0  0  0  0  0  0  0
   -1.3857    2.4000    0.0000 O   0  0  0  0  0  0  0  0  0  0  0  0
    0.0000   -0.0000    0.0000 C   0  0  0  0  0  0  0  0  0  0  0  0
    1.3857    0.8000    0.0000 C   0  0  0  0  0  0  0  0  0  0  0  0
    1.3857    2.4000    0.0000 H   0  0  0  0  0  0  0  0  0  0  0  0
    2.7712   -0.0000    0.0000 C   0  0  0  0  0  0  0  0  0  0  0  0
    4.1569    0.8000    0.0000 H   0  0  0  0  0  0  0  0  0  0  0  0
    4.1569   -2.4000    0.0000 H   0  0  0  0  0  0  0  0  0  0  0  0
  1  2  4  0  0  0  0
  2  3  1  0  0  0  0
  2  4  4  0  0  0  0
  4  5  1  0  0  0  0
  5  6  2  0  0  0  0
  5  7  1  0  0  0  0
  7  8  1  0  0  0  0
  7  9  2  0  0  0  0
  9 10  1  0  0  0  0
 10 11  1  0  0  0  0
 11 12  2  0  0  0  0
 11 13  1  0  0  0  0
 13 14  1  0  0  0  0
 13 15  1  0  0  0  0
 13 16  1  0  0  0  0
 10 17  1  0  0  0  0
  9 18  1  0  0  0  0
 18 19  2  0  0  0  0
 18 20  1  0  0  0  0
 20  4  4  0  0  0  0
 20 21  4  0  0  0  0
 21 22  1  0  0  0  0
 21 23  4  0  0  0  0
 23  1  4  0  0  0  0
 23 24  1  0  0  0  0
  1 25  1  0  0  0  0
M  END
> <CAS>
27541-88-4

> <NAME>
Quinonamid

> <preferred_name>
Quinonamid

> <iupac>
2,2-dichloro-N-(3-chloro-1,4-dioxo-1,4-dihydronaphthalen-2-yl)acetamide

> <SMILES>
O=C1C(NC(=O)C(Cl)Cl)=C(Cl)C(=O)c2ccccc12

> <Canonical_QSARr>
O=C1C(NC(=O)C(Cl)Cl)=C(Cl)C(=O)c2ccccc12

> <InChI_Code_QSARr>
InChI=1S/C12H6Cl3NO3/c13-7-8(16-12(19)11(14)15)10(18)6-4-2-1-3-5(6)9(7)17/h1-4,11H,(H,16,19)

> <InChI Key_QSARr>
ZIEWAMOXCOLNSJ-UHFFFAOYSA-N

> <Salt_Solvent>
?

> <WS Temperature>
23

> <WS Reference>
YALKOWSKY,SH & DANNENFELSER,RM (1992)

> <dsstox_substance_id>
DTXSID2058047

> <LogMolar>
-5.0261

$$$$
28217-97-2
  -INDIGO-01081615412D

 27 27  0  0  0  0  0  0  0  0999 V2000
    1.3856    2.4000    0.0000 C   0  0  0  0  0  0  0  0  0  0  0  0
    1.3856    0.8000    0.0000 C   0  0  0  0  0  0  0  0  0  0  0  0
   -0.0001   -0.0001    0.0000 C   0  0  0  0  0  0  0  0  0  0  0  0
   -1.3856    0.8000    0.0000 N   0  0  0  0  0  0  0  0  0  0  0  0
   -2.7712   -0.0001    0.0000 C   0  0  0  0  0  0  0  0  0  0  0  0
   -2.7712   -1.6001    0.0000 S   0  0  0  0  0  0  0  0  0  0  0  0
   -4.1569    0.8000    0.0000 N   0  0  0  0  0  0  0  0  0  0  0  0
   -5.5425   -0.0001    0.0000 C   0  0  0  0  0  0  0  0  0  0  0  0
   -6.9282   -0.8000    0.0000 H   0  0  0  0  0  0  0  0  0  0  0  0
   -6.9282    0.8000    0.0000 H   0  0  0  0  0  0  0  0  0  0  0  0
   -5.5425   -1.6001    0.0000 H   0  0  0  0  0  0  0  0  0  0  0  0
   -4.1569    2.4000    0.0000 C   0  0  0  0  0  0  0  0  0  0  0  0
   -4.1569    4.0000    0.0000 H   0  0  0  0  0  0  0  0  0  0  0  0
   -5.5425    3.1999    0.0000 H   0  0  0  0  0  0  0  0  0  0  0  0
   -2.7712    3.1999    0.0000 H   0  0  0  0  0  0  0  0  0  0  0  0
   -1.3856    2.4000    0.0000 H   0  0  0  0  0  0  0  0  0  0  0  0
   -0.0001   -1.6001    0.0000 C   0  0  0  0  0  0  0  0  0  0  0  0
   -1.3856   -2.4000    0.0000 H   0  0  0  0  0  0  0  0  0  0  0  0
    1.3856   -2.4000    0.0000 C   0  0  0  0  0  0  0  0  0  0  0  0
    1.3856   -4.0000    0.0000 H   0  0  0  0  0  0  0  0  0  0  0  0
    2.7713   -1.6001    0.0000 C   0  0  0  0  0  0  0  0  0  0  0  0
    4.1569   -2.4000    0.0000 Cl  0  0  0  0  0  0  0  0  0  0  0  0
    2.7713   -0.0001    0.0000 C   0  0  0  0  0  0  0  0  0  0  0  0
    4.1569    0.8000    0.0000 H   0  0  0  0  0  0  0  0  0  0  0  0
    1.3856    4.0000    0.0000 H   0  0  0  0  0  0  0  0  0  0  0  0
    2.7713    3.2001    0.0000 H   0  0  0  0  0  0  0  0  0  0  0  0
   -0.0001    3.2001    0.0000 H   0  0  0  0  0  0  0  0  0  0  0  0
  1  2  1  0  0  0  0
  2  3  4  0  0  0  0
  3  4  1  0  0  0  0
  4  5  1  0  0  0  0
  5  6  2  0  0  0  0
  5  7  1  0  0  0  0
  7  8  1  0  0  0  0
  8  9  1  0  0  0  0
  8 10  1  0  0  0  0
  8 11  1  0  0  0  0
  7 12  1  0  0  0  0
 12 13  1  0  0  0  0
 12 14  1  0  0  0  0
 12 15  1  0  0  0  0
  4 16  1  0  0  0  0
  3 17  4  0  0  0  0
 17 18  1  0  0  0  0
 17 19  4  0  0  0  0
 19 20  1  0  0  0  0
 19 21  4  0  0  0  0
 21 22  1  0  0  0  0
 21 23  4  0  0  0  0
 23  2  4  0  0  0  0
 23 24  1  0  0  0  0
  1 25  1  0  0  0  0
  1 26  1  0  0  0  0
  1 27  1  0  0  0  0
M  END
> <CAS>
28217-97-2

> <NAME>
Chloromethiuron

> <preferred_name>
Chloromethiuron

> <iupac>
3-(4-chloro-2-methylphenyl)-1,1-dimethylthiourea

> <SMILES>
Cc1cc(Cl)ccc1NC(=S)N(C)C

> <Canonical_QSARr>
Cc1cc(Cl)ccc1NC(=S)N(C)C

> <InChI_Code_QSARr>
InChI=1S/C10H13ClN2S/c1-7-6-8(11)4-5-9(7)12-10(14)13(2)3/h4-6H,1-3H3,(H,12,14)

> <InChI Key_QSARr>
IBZZDPVVVSNQOY-UHFFFAOYSA-N

> <Salt_Solvent>
?

> <WS Temperature>
20

> <WS Reference>
WORTHING,CR & WALKER,SR (1987)

> <dsstox_substance_id>
DTXSID2058049

> <LogMolar>
-3.6604

$$$$
28495-88-7
  -INDIGO-01081615412D

 17 17  0  0  0  0  0  0  0  0999 V2000
    1.3856    2.4000    0.0000 O   0  0  0  0  0  0  0  0  0  0  0  0
    0.0000    1.6000    0.0000 C   0  0  0  0  0  0  0  0  0  0  0  0
   -1.3857    2.4000    0.0000 N   0  0  0  0  0  0  0  0  0  0  0  0
   -1.3857    4.0000    0.0000 H   0  0  0  0  0  0  0  0  0  0  0  0
   -2.7713    1.6000    0.0000 C   0  0  0  0  0  0  0  0  0  0  0  0
   -4.1570    2.4000    0.0000 O   0  0  0  0  0  0  0  0  0  0  0  0
   -2.7713    0.0000    0.0000 C   0  0  0  0  0  0  0  0  0  0  0  0
   -4.1569   -0.8000    0.0000 N   0  0  0  0  0  0  0  0  0  0  0  0
   -5.5426    0.0000    0.0000 O   0  0  0  0  0  0  0  0  0  0  0  0
   -4.1569   -2.4000    0.0000 O   0  0  0  0  0  0  0  0  0  0  0  0
   -1.3857   -0.8000    0.0000 C   0  0  0  0  0  0  0  0  0  0  0  0
   -1.3857   -2.4000    0.0000 H   0  0  0  0  0  0  0  0  0  0  0  0
    0.0000    0.0000    0.0000 N   0  0  0  0  0  0  0  0  0  0  0  0
    1.3857   -0.8000    0.0000 C   0  0  0  0  0  0  0  0  0  0  0  0
    2.7713   -1.6000    0.0000 H   0  0  0  0  0  0  0  0  0  0  0  0
    2.7713    0.0000    0.0000 H   0  0  0  0  0  0  0  0  0  0  0  0
    1.3857   -2.4000    0.0000 H   0  0  0  0  0  0  0  0  0  0  0  0
  1  2  2  0  0  0  0
  2  3  1  0  0  0  0
  3  4  1  0  0  0  0
  3  5  1  0  0  0  0
  5  6  2  0  0  0  0
  5  7  1  0  0  0  0
  7  8  1  0  0  0  0
  8  9  2  0  0  0  0
  8 10  1  0  0  0  0
  7 11  2  0  0  0  0
 11 12  1  0  0  0  0
 11 13  1  0  0  0  0
 13  2  1  0  0  0  0
 13 14  1  0  0  0  0
 14 15  1  0  0  0  0
 14 16  1  0  0  0  0
 14 17  1  0  0  0  0
M  CHG  2   8   1  10  -1
M  END
> <CAS>
28495-88-7

> <NAME>
2,4(1H,3H)-Pyrimidinedione, 1-methyl-5-nitro-

> <preferred_name>
5-nitro-1-methyl-uracil

> <iupac>
C5H5N3O4

> <SMILES>
CN1C=C(C(=O)NC1=O)[N+]([O-])=O

> <Canonical_QSARr>
CN1C=C(C(=O)NC1=O)[N+]([O-])=O

> <InChI_Code_QSARr>
InChI=1S/C5H5N3O4/c1-7-2-3(8(11)12)4(9)6-5(7)10/h2H,1H3,(H,6,9,10)

> <InChI Key_QSARr>
JTVBCXIVJCAUBK-UHFFFAOYSA-N

> <Salt_Solvent>
?

> <WS Temperature>
25

> <WS Reference>
BEILSTEIN

> <dsstox_substance_id>
DTXSID30373118

> <LogMolar>
-1.9977

$$$$
29091-21-2
  -INDIGO-01081615412D

 41 41  0  0  0  0  0  0  0  0999 V2000
    2.4000    1.3856    0.0000 C   0  0  0  0  0  0  0  0  0  0  0  0
    1.6000    2.7712    0.0000 N   0  0  0  0  0  0  0  0  0  0  0  0
    2.4000    4.1569    0.0000 O   0  0  0  0  0  0  0  0  0  0  0  0
   -0.0000    2.7712    0.0000 O   0  0  0  0  0  0  0  0  0  0  0  0
    1.6000    0.0001    0.0000 C   0  0  0  0  0  0  0  0  0  0  0  0
   -0.0000    0.0001    0.0000 N   0  0  0  0  0  0  0  0  0  0  0  0
   -0.8000    1.3856    0.0000 C   0  0  0  0  0  0  0  0  0  0  0  0
   -1.6000    2.7712    0.0000 C   0  0  0  0  0  0  0  0  0  0  0  0
   -2.4000    4.1569    0.0000 C   0  0  0  0  0  0  0  0  0  0  0  0
   -3.2000    5.5426    0.0000 H   0  0  0  0  0  0  0  0  0  0  0  0
   -1.6000    5.5426    0.0000 H   0  0  0  0  0  0  0  0  0  0  0  0
   -4.0000    4.1569    0.0000 H   0  0  0  0  0  0  0  0  0  0  0  0
   -0.3743    3.7997    0.0000 H   0  0  0  0  0  0  0  0  0  0  0  0
   -2.9856    1.9713    0.0000 H   0  0  0  0  0  0  0  0  0  0  0  0
    0.7035    1.9329    0.0000 H   0  0  0  0  0  0  0  0  0  0  0  0
   -2.1856    0.5857    0.0000 H   0  0  0  0  0  0  0  0  0  0  0  0
   -0.8000   -1.3856    0.0000 C   0  0  0  0  0  0  0  0  0  0  0  0
   -1.6000   -2.7712    0.0000 C   0  0  0  0  0  0  0  0  0  0  0  0
   -2.4000   -4.1569    0.0000 C   0  0  0  0  0  0  0  0  0  0  0  0
   -3.2000   -5.5426    0.0000 H   0  0  0  0  0  0  0  0  0  0  0  0
   -4.0000   -4.1569    0.0000 H   0  0  0  0  0  0  0  0  0  0  0  0
   -1.6000   -5.5426    0.0000 H   0  0  0  0  0  0  0  0  0  0  0  0
   -2.9856   -1.9713    0.0000 H   0  0  0  0  0  0  0  0  0  0  0  0
   -0.3743   -3.7997    0.0000 H   0  0  0  0  0  0  0  0  0  0  0  0
   -2.1856   -0.5857    0.0000 H   0  0  0  0  0  0  0  0  0  0  0  0
    0.7035   -1.9329    0.0000 H   0  0  0  0  0  0  0  0  0  0  0  0
    2.4000   -1.3856    0.0000 C   0  0  0  0  0  0  0  0  0  0  0  0
    1.8527   -2.8891    0.0000 N   0  0  0  0  0  0  0  0  0  0  0  0
    2.8812   -4.1148    0.0000 O   0  0  0  0  0  0  0  0  0  0  0  0
    0.2770   -3.1670    0.0000 O   0  0  0  0  0  0  0  0  0  0  0  0
    4.0000   -1.3856    0.0000 C   0  0  0  0  0  0  0  0  0  0  0  0
    4.8000   -2.7712    0.0000 H   0  0  0  0  0  0  0  0  0  0  0  0
    4.8000    0.0001    0.0000 C   0  0  0  0  0  0  0  0  0  0  0  0
    6.4000    0.0001    0.0000 C   0  0  0  0  0  0  0  0  0  0  0  0
    8.0000    0.0001    0.0000 F   0  0  0  0  0  0  0  0  0  0  0  0
    7.2000   -1.3856    0.0000 F   0  0  0  0  0  0  0  0  0  0  0  0
    7.2000    1.3856    0.0000 F   0  0  0  0  0  0  0  0  0  0  0  0
    4.0000    1.3856    0.0000 C   0  0  0  0  0  0  0  0  0  0  0  0
    4.8000    2.7712    0.0000 N   0  0  0  0  0  0  0  0  0  0  0  0
    4.0000    4.1569    0.0000 H   0  0  0  0  0  0  0  0  0  0  0  0
    6.4000    2.7712    0.0000 H   0  0  0  0  0  0  0  0  0  0  0  0
  1  2  1  0  0  0  0
  2  3  2  0  0  0  0
  2  4  1  0  0  0  0
  1  5  4  0  0  0  0
  5  6  1  0  0  0  0
  6  7  1  0  0  0  0
  7  8  1  0  0  0  0
  8  9  1  0  0  0  0
  9 10  1  0  0  0  0
  9 11  1  0  0  0  0
  9 12  1  0  0  0  0
  8 13  1  0  0  0  0
  8 14  1  0  0  0  0
  7 15  1  0  0  0  0
  7 16  1  0  0  0  0
  6 17  1  0  0  0  0
 17 18  1  0  0  0  0
 18 19  1  0  0  0  0
 19 20  1  0  0  0  0
 19 21  1  0  0  0  0
 19 22  1  0  0  0  0
 18 23  1  0  0  0  0
 18 24  1  0  0  0  0
 17 25  1  0  0  0  0
 17 26  1  0  0  0  0
  5 27  4  0  0  0  0
 27 28  1  0  0  0  0
 28 29  2  0  0  0  0
 28 30  1  0  0  0  0
 27 31  4  0  0  0  0
 31 32  1  0  0  0  0
 31 33  4  0  0  0  0
 33 34  1  0  0  0  0
 34 35  1  0  0  0  0
 34 36  1  0  0  0  0
 34 37  1  0  0  0  0
 33 38  4  0  0  0  0
 38  1  4  0  0  0  0
 38 39  1  0  0  0  0
 39 40  1  0  0  0  0
 39 41  1  0  0  0  0
M  CHG  4   2   1   4  -1  28   1  30  -1
M  END
> <CAS>
29091-21-2

> <NAME>
PRODIAMINE

> <preferred_name>
Prodiamine

> <iupac>
2,6-dinitro-N,N-dipropyl-4-(trifluoromethyl)benzene-1,3-diamine

> <SMILES>
CCCN(CCC)c1c(cc(c(N)c1[N+]([O-])=O)C(F)(F)F)[N+]([O-])=O

> <Canonical_QSARr>
CCCN(CCC)c1c(cc(c(N)c1[N+]([O-])=O)C(F)(F)F)[N+]([O-])=O

> <InChI_Code_QSARr>
InChI=1S/C13H17F3N4O4/c1-3-5-18(6-4-2)11-9(19(21)22)7-8(13(14,15)16)10(17)12(11)20(23)24/h7H,3-6,17H2,1-2H3

> <InChI Key_QSARr>
RSVPPPHXAASNOL-UHFFFAOYSA-N

> <Salt_Solvent>
?

> <WS Temperature>
25

> <WS Reference>
TOMLIN,C (1994)

> <dsstox_substance_id>
DTXSID1034210

> <LogMolar>
-7.4305

$$$$
29173-31-7
  -INDIGO-01081615412D

 29 28  0  0  0  0  0  0  0  0999 V2000
   -0.0000    2.7713    0.0000 C   0  0  0  0  0  0  0  0  0  0  0  0
    0.8000    1.3857    0.0000 O   0  0  0  0  0  0  0  0  0  0  0  0
   -0.0000    0.0001    0.0000 P   0  0  0  0  0  0  0  0  0  0  0  0
    1.3856   -0.8000    0.0000 C   0  0  0  0  0  0  0  0  0  0  0  0
    2.7713   -1.5999    0.0000 H   0  0  0  0  0  0  0  0  0  0  0  0
    1.3856   -2.4000    0.0000 H   0  0  0  0  0  0  0  0  0  0  0  0
    2.7713    0.0001    0.0000 H   0  0  0  0  0  0  0  0  0  0  0  0
   -0.7999   -1.3856    0.0000 S   0  0  0  0  0  0  0  0  0  0  0  0
   -1.3857    0.8000    0.0000 S   0  0  0  0  0  0  0  0  0  0  0  0
   -2.7712    0.0001    0.0000 C   0  0  0  0  0  0  0  0  0  0  0  0
   -4.1569   -0.8000    0.0000 C   0  0  0  0  0  0  0  0  0  0  0  0
   -4.1569   -2.4000    0.0000 O   0  0  0  0  0  0  0  0  0  0  0  0
   -5.5425    0.0001    0.0000 N   0  0  0  0  0  0  0  0  0  0  0  0
   -6.9282   -0.8000    0.0000 C   0  0  0  0  0  0  0  0  0  0  0  0
   -8.3138   -1.6001    0.0000 H   0  0  0  0  0  0  0  0  0  0  0  0
   -8.3138    0.0001    0.0000 H   0  0  0  0  0  0  0  0  0  0  0  0
   -6.9282   -2.4000    0.0000 H   0  0  0  0  0  0  0  0  0  0  0  0
   -5.5425    1.6001    0.0000 C   0  0  0  0  0  0  0  0  0  0  0  0
   -4.1569    2.4000    0.0000 O   0  0  0  0  0  0  0  0  0  0  0  0
   -6.9282    2.4000    0.0000 O   0  0  0  0  0  0  0  0  0  0  0  0
   -6.9282    4.0000    0.0000 C   0  0  0  0  0  0  0  0  0  0  0  0
   -6.9282    5.6000    0.0000 H   0  0  0  0  0  0  0  0  0  0  0  0
   -8.3138    4.8001    0.0000 H   0  0  0  0  0  0  0  0  0  0  0  0
   -5.5425    4.8001    0.0000 H   0  0  0  0  0  0  0  0  0  0  0  0
   -3.5713    1.3857    0.0000 H   0  0  0  0  0  0  0  0  0  0  0  0
   -1.9713   -1.3856    0.0000 H   0  0  0  0  0  0  0  0  0  0  0  0
    0.8000    4.1570    0.0000 H   0  0  0  0  0  0  0  0  0  0  0  0
   -0.7999    4.1570    0.0000 H   0  0  0  0  0  0  0  0  0  0  0  0
    1.5999    2.7713    0.0000 H   0  0  0  0  0  0  0  0  0  0  0  0
  1  2  1  0  0  0  0
  2  3  1  0  0  0  0
  3  4  1  0  0  0  0
  4  5  1  0  0  0  0
  4  6  1  0  0  0  0
  4  7  1  0  0  0  0
  3  8  2  0  0  0  0
  3  9  1  0  0  0  0
  9 10  1  0  0  0  0
 10 11  1  0  0  0  0
 11 12  2  0  0  0  0
 11 13  1  0  0  0  0
 13 14  1  0  0  0  0
 14 15  1  0  0  0  0
 14 16  1  0  0  0  0
 14 17  1  0  0  0  0
 13 18  1  0  0  0  0
 18 19  2  0  0  0  0
 18 20  1  0  0  0  0
 20 21  1  0  0  0  0
 21 22  1  0  0  0  0
 21 23  1  0  0  0  0
 21 24  1  0  0  0  0
 10 25  1  0  0  0  0
 10 26  1  0  0  0  0
  1 27  1  0  0  0  0
  1 28  1  0  0  0  0
  1 29  1  0  0  0  0
M  END
> <CAS>
29173-31-7

> <NAME>
Mercarphon [ISO]

> <preferred_name>
Mecarphon

> <iupac>
S-{2-[(methoxycarbonyl)(methyl)amino]-2-oxoethyl} O-methyl methylphosphonodithioate

> <SMILES>
COP(C)(=S)SCC(=O)N(C)C(=O)OC

> <Canonical_QSARr>
COP(C)(=S)SCC(=O)N(C)C(=O)OC

> <InChI_Code_QSARr>
InChI=1S/C7H14NO4PS2/c1-8(7(10)11-2)6(9)5-15-13(4,14)12-3/h5H2,1-4H3

> <InChI Key_QSARr>
PUTUPQVEMBRCAG-UHFFFAOYSA-N

> <Salt_Solvent>
?

> <WS Temperature>


> <WS Reference>
SHIU,WY ET AL. (1990)

> <dsstox_substance_id>
DTXSID5042118

> <LogMolar>
-1.9563

$$$$
29911-27-1
  -INDIGO-01081615412D

 32 31  0  0  0  0  0  0  0  0999 V2000
    1.9328   -2.3035    0.0000 C   0  0  0  0  0  0  0  0  0  0  0  0
    1.3857   -0.8000    0.0000 O   0  0  0  0  0  0  0  0  0  0  0  0
   -0.0001    0.0000    0.0000 C   0  0  0  0  0  0  0  0  0  0  0  0
    0.8000    1.3857    0.0000 C   0  0  0  0  0  0  0  0  0  0  0  0
    1.6001    2.7713    0.0000 H   0  0  0  0  0  0  0  0  0  0  0  0
   -0.0001    2.7713    0.0000 H   0  0  0  0  0  0  0  0  0  0  0  0
    2.3999    1.3857    0.0000 H   0  0  0  0  0  0  0  0  0  0  0  0
   -1.0285   -1.2257    0.0000 C   0  0  0  0  0  0  0  0  0  0  0  0
   -2.0569   -2.4513    0.0000 O   0  0  0  0  0  0  0  0  0  0  0  0
   -3.6327   -2.1735    0.0000 C   0  0  0  0  0  0  0  0  0  0  0  0
   -5.2082   -1.8957    0.0000 C   0  0  0  0  0  0  0  0  0  0  0  0
   -6.7839   -1.6179    0.0000 C   0  0  0  0  0  0  0  0  0  0  0  0
   -8.3597   -1.3400    0.0000 H   0  0  0  0  0  0  0  0  0  0  0  0
   -7.8124   -2.8435    0.0000 H   0  0  0  0  0  0  0  0  0  0  0  0
   -7.3313   -0.1143    0.0000 H   0  0  0  0  0  0  0  0  0  0  0  0
   -5.4860   -3.4714    0.0000 H   0  0  0  0  0  0  0  0  0  0  0  0
   -4.9304   -0.3200    0.0000 H   0  0  0  0  0  0  0  0  0  0  0  0
   -3.9105   -3.7492    0.0000 H   0  0  0  0  0  0  0  0  0  0  0  0
   -3.3549   -0.5978    0.0000 H   0  0  0  0  0  0  0  0  0  0  0  0
   -2.2541   -0.1972    0.0000 H   0  0  0  0  0  0  0  0  0  0  0  0
    0.1971   -2.2542    0.0000 H   0  0  0  0  0  0  0  0  0  0  0  0
   -1.3856    0.8001    0.0000 H   0  0  0  0  0  0  0  0  0  0  0  0
    3.4365   -1.7563    0.0000 C   0  0  0  0  0  0  0  0  0  0  0  0
    3.9836   -3.2598    0.0000 O   0  0  0  0  0  0  0  0  0  0  0  0
    5.5593   -3.5376    0.0000 H   0  0  0  0  0  0  0  0  0  0  0  0
    4.9399   -1.2090    0.0000 C   0  0  0  0  0  0  0  0  0  0  0  0
    6.4434   -0.6619    0.0000 H   0  0  0  0  0  0  0  0  0  0  0  0
    6.1656   -2.2375    0.0000 H   0  0  0  0  0  0  0  0  0  0  0  0
    5.2178    0.3666    0.0000 H   0  0  0  0  0  0  0  0  0  0  0  0
    2.8892   -0.2527    0.0000 H   0  0  0  0  0  0  0  0  0  0  0  0
    2.4801   -3.8070    0.0000 H   0  0  0  0  0  0  0  0  0  0  0  0
    0.9044   -3.5292    0.0000 H   0  0  0  0  0  0  0  0  0  0  0  0
  1  2  1  0  0  0  0
  2  3  1  0  0  0  0
  3  4  1  0  0  0  0
  4  5  1  0  0  0  0
  4  6  1  0  0  0  0
  4  7  1  0  0  0  0
  3  8  1  0  0  0  0
  8  9  1  0  0  0  0
  9 10  1  0  0  0  0
 10 11  1  0  0  0  0
 11 12  1  0  0  0  0
 12 13  1  0  0  0  0
 12 14  1  0  0  0  0
 12 15  1  0  0  0  0
 11 16  1  0  0  0  0
 11 17  1  0  0  0  0
 10 18  1  0  0  0  0
 10 19  1  0  0  0  0
  8 20  1  0  0  0  0
  8 21  1  0  0  0  0
  3 22  1  0  0  0  0
  1 23  1  0  0  0  0
 23 24  1  0  0  0  0
 24 25  1  0  0  0  0
 23 26  1  0  0  0  0
 26 27  1  0  0  0  0
 26 28  1  0  0  0  0
 26 29  1  0  0  0  0
 23 30  1  0  0  0  0
  1 31  1  0  0  0  0
  1 32  1  0  0  0  0
M  END
> <CAS>
29911-27-1

> <NAME>
2-Propanol, 1-(1-methyl-2-propoxyethoxy)-

> <preferred_name>
Butyl dipropasol solvent

> <iupac>
1-[(1-propoxypropan-2-yl)oxy]propan-2-ol

> <SMILES>
CCCOCC(C)OCC(C)O

> <Canonical_QSARr>
CCCOCC(C)OCC(C)O

> <InChI_Code_QSARr>
InChI=1S/C9H20O3/c1-4-5-11-7-9(3)12-6-8(2)10/h8-10H,4-7H2,1-3H3

> <InChI Key_QSARr>
WEZPLQKRXDBPEP-UHFFFAOYSA-N

> <Salt_Solvent>
?

> <WS Temperature>


> <WS Reference>
STAPLES,CA & DAVIS,JW (2002)

> <dsstox_substance_id>
DTXSID3033276

> <LogMolar>
-0.0701

$$$$
30043-49-3
  -INDIGO-01081615412D

 28 28  0  0  0  0  0  0  0  0999 V2000
   -6.8958   -0.3517    0.0000 C   0  0  0  0  0  0  0  0  0  0  0  0
   -8.3576    0.2991    0.0000 N   0  0  0  0  0  0  0  0  0  0  0  0
   -9.6520   -0.6414    0.0000 C   0  0  0  0  0  0  0  0  0  0  0  0
  -10.9464   -1.5818    0.0000 H   0  0  0  0  0  0  0  0  0  0  0  0
  -11.1136    0.0094    0.0000 H   0  0  0  0  0  0  0  0  0  0  0  0
   -9.4846   -2.2326    0.0000 H   0  0  0  0  0  0  0  0  0  0  0  0
   -8.5248    1.8903    0.0000 H   0  0  0  0  0  0  0  0  0  0  0  0
   -5.6013    0.5888    0.0000 N   0  0  0  0  0  0  0  0  0  0  0  0
   -5.7685    2.1800    0.0000 C   0  0  0  0  0  0  0  0  0  0  0  0
   -5.9359    3.7712    0.0000 H   0  0  0  0  0  0  0  0  0  0  0  0
   -7.2303    2.8307    0.0000 H   0  0  0  0  0  0  0  0  0  0  0  0
   -4.4741    3.1204    0.0000 H   0  0  0  0  0  0  0  0  0  0  0  0
   -4.1398   -0.0621    0.0000 C   0  0  0  0  0  0  0  0  0  0  0  0
   -3.8071   -1.6271    0.0000 N   0  0  0  1  0  0  0  0  0  0  0  0
   -2.2158   -1.7944    0.0000 N   0  0  0  1  0  0  0  0  0  0  0  0
   -1.5649   -0.3327    0.0000 C   0  0  0  0  0  0  0  0  0  0  0  0
   -0.0001   -0.0000    0.0000 S   0  0  0  0  0  0  0  0  0  0  0  0
    1.5650    0.3327    0.0000 C   0  0  0  0  0  0  0  0  0  0  0  0
    3.1300    0.6653    0.0000 C   0  0  0  0  0  0  0  0  0  0  0  0
    4.6951    0.9980    0.0000 H   0  0  0  0  0  0  0  0  0  0  0  0
    4.2006   -0.5237    0.0000 H   0  0  0  0  0  0  0  0  0  0  0  0
    3.6246    2.1870    0.0000 H   0  0  0  0  0  0  0  0  0  0  0  0
    1.8976   -1.2324    0.0000 H   0  0  0  0  0  0  0  0  0  0  0  0
    1.2323    1.8977    0.0000 H   0  0  0  0  0  0  0  0  0  0  0  0
    0.3326   -1.5651    0.0000 O   0  0  0  0  0  0  0  0  0  0  0  0
   -0.3327    1.5651    0.0000 O   0  0  0  0  0  0  0  0  0  0  0  0
   -2.7542    0.7380    0.0000 S   0  0  0  1  0  0  0  0  0  0  0  0
   -6.7286   -1.9430    0.0000 O   0  0  0  0  0  0  0  0  0  0  0  0
  1  2  1  0  0  0  0
  2  3  1  0  0  0  0
  3  4  1  0  0  0  0
  3  5  1  0  0  0  0
  3  6  1  0  0  0  0
  2  7  1  0  0  0  0
  1  8  1  0  0  0  0
  8  9  1  0  0  0  0
  9 10  1  0  0  0  0
  9 11  1  0  0  0  0
  9 12  1  0  0  0  0
  8 13  1  0  0  0  0
 13 14  4  0  0  0  0
 14 15  4  0  0  0  0
 15 16  4  0  0  0  0
 16 17  1  0  0  0  0
 17 18  1  0  0  0  0
 18 19  1  0  0  0  0
 19 20  1  0  0  0  0
 19 21  1  0  0  0  0
 19 22  1  0  0  0  0
 18 23  1  0  0  0  0
 18 24  1  0  0  0  0
 17 25  2  0  0  0  0
 17 26  2  0  0  0  0
 16 27  4  0  0  0  0
 27 13  4  0  0  0  0
  1 28  2  0  0  0  0
M  END
> <CAS>
30043-49-3

> <NAME>
Ethidimuron

> <preferred_name>
Ethidimuron

> <iupac>
1-[5-(ethylsulfonyl)-1,3,4-thiadiazol-2-yl]-1,3-dimethylurea

> <SMILES>
CCS(=O)(=O)c1[n][n]c([s]1)N(C)C(=O)NC

> <Canonical_QSARr>
CCS(=O)(=O)c1[n][n]c([s]1)N(C)C(=O)NC

> <InChI_Code_QSARr>
InChI=1S/C7H12N4O3S2/c1-4-16(13,14)7-10-9-6(15-7)11(3)5(12)8-2/h4H2,1-3H3,(H,8,12)

> <InChI Key_QSARr>
KCOCSOWTADCKOL-UHFFFAOYSA-N

> <Salt_Solvent>
?

> <WS Temperature>
20

> <WS Reference>
WORTHING,CR & WALKER,SR (1987)

> <dsstox_substance_id>
DTXSID8035005

> <LogMolar>
-1.945

$$$$
30560-19-1
  -INDIGO-01081615412D

 20 19  0  0  0  0  0  0  0  0999 V2000
    0.0001    0.0000    0.0000 P   0  0  0  0  0  0  0  0  0  0  0  0
   -1.3856   -0.8000    0.0000 O   0  0  0  0  0  0  0  0  0  0  0  0
   -1.3856   -2.4000    0.0000 C   0  0  0  0  0  0  0  0  0  0  0  0
   -2.6113   -3.4285    0.0000 H   0  0  0  0  0  0  0  0  0  0  0  0
   -1.1077   -3.9757    0.0000 H   0  0  0  0  0  0  0  0  0  0  0  0
   -2.8891   -1.8528    0.0000 H   0  0  0  0  0  0  0  0  0  0  0  0
   -0.8001    1.3856    0.0000 S   0  0  0  0  0  0  0  0  0  0  0  0
   -2.4000    1.3856    0.0000 C   0  0  0  0  0  0  0  0  0  0  0  0
   -3.2000    2.7713    0.0000 H   0  0  0  0  0  0  0  0  0  0  0  0
   -1.6001    2.7713    0.0000 H   0  0  0  0  0  0  0  0  0  0  0  0
   -4.0000    1.3856    0.0000 H   0  0  0  0  0  0  0  0  0  0  0  0
    0.8000   -1.3856    0.0000 O   0  0  0  0  0  0  0  0  0  0  0  0
    1.3857    0.8000    0.0000 N   0  0  0  0  0  0  0  0  0  0  0  0
    2.7713    0.0000    0.0000 C   0  0  0  0  0  0  0  0  0  0  0  0
    4.1569    0.8000    0.0000 C   0  0  0  0  0  0  0  0  0  0  0  0
    5.5426    1.6000    0.0000 H   0  0  0  0  0  0  0  0  0  0  0  0
    5.5426    0.0000    0.0000 H   0  0  0  0  0  0  0  0  0  0  0  0
    4.1569    2.4000    0.0000 H   0  0  0  0  0  0  0  0  0  0  0  0
    2.7713   -1.6000    0.0000 O   0  0  0  0  0  0  0  0  0  0  0  0
    1.3857    2.4000    0.0000 H   0  0  0  0  0  0  0  0  0  0  0  0
  1  2  1  0  0  0  0
  2  3  1  0  0  0  0
  3  4  1  0  0  0  0
  3  5  1  0  0  0  0
  3  6  1  0  0  0  0
  1  7  1  0  0  0  0
  7  8  1  0  0  0  0
  8  9  1  0  0  0  0
  8 10  1  0  0  0  0
  8 11  1  0  0  0  0
  1 12  2  0  0  0  0
  1 13  1  0  0  0  0
 13 14  1  0  0  0  0
 14 15  1  0  0  0  0
 15 16  1  0  0  0  0
 15 17  1  0  0  0  0
 15 18  1  0  0  0  0
 14 19  2  0  0  0  0
 13 20  1  0  0  0  0
M  END
> <CAS>
30560-19-1

> <NAME>
ACEPHATE

> <preferred_name>
Acephate

> <iupac>
O,S-dimethyl acetylphosphoramidothioate

> <SMILES>
COP(=O)(NC(C)=O)SC

> <Canonical_QSARr>
COP(=O)(NC(C)=O)SC

> <InChI_Code_QSARr>
InChI=1S/C4H10NO3PS/c1-4(6)5-9(7,8-2)10-3/h1-3H3,(H,5,6,7)

> <InChI Key_QSARr>
YASYVMFAVPKPKE-UHFFFAOYSA-N

> <Salt_Solvent>
?

> <WS Temperature>
25

> <WS Reference>
WAUCHOPE,RD ET AL. (1991A)

> <dsstox_substance_id>
DTXSID8023846

> <LogMolar>
0.6499

$$$$
31218-83-4
  -INDIGO-01081615412D

 37 36  0  0  0  0  0  0  0  0999 V2000
    8.2841    1.9909    0.0000 P   0  0  0  0  0  0  0  0  0  0  0  0
    9.3124    0.7653    0.0000 O   0  0  0  0  0  0  0  0  0  0  0  0
    8.7653   -0.7382    0.0000 C   0  0  0  0  0  0  0  0  0  0  0  0
    9.7937   -1.9639    0.0000 H   0  0  0  0  0  0  0  0  0  0  0  0
    8.2180   -2.2418    0.0000 H   0  0  0  0  0  0  0  0  0  0  0  0
    7.1896   -1.0161    0.0000 H   0  0  0  0  0  0  0  0  0  0  0  0
    9.5097    3.0194    0.0000 N   0  0  0  0  0  0  0  0  0  0  0  0
   11.0133    2.4722    0.0000 C   0  0  0  0  0  0  0  0  0  0  0  0
   12.5166    1.9250    0.0000 C   0  0  0  0  0  0  0  0  0  0  0  0
   14.0202    1.3776    0.0000 H   0  0  0  0  0  0  0  0  0  0  0  0
   13.7425    2.9533    0.0000 H   0  0  0  0  0  0  0  0  0  0  0  0
   12.7946    0.3493    0.0000 H   0  0  0  0  0  0  0  0  0  0  0  0
   11.5604    3.9757    0.0000 H   0  0  0  0  0  0  0  0  0  0  0  0
   10.4659    0.9686    0.0000 H   0  0  0  0  0  0  0  0  0  0  0  0
    9.2319    4.5951    0.0000 H   0  0  0  0  0  0  0  0  0  0  0  0
    7.2555    3.2166    0.0000 S   0  0  0  0  0  0  0  0  0  0  0  0
    7.0585    0.9625    0.0000 O   0  0  0  0  0  0  0  0  0  0  0  0
    5.5549    1.5097    0.0000 C   0  0  0  0  0  0  0  0  0  0  0  0
    5.2771    3.0854    0.0000 C   0  0  0  0  0  0  0  0  0  0  0  0
    4.9991    4.6611    0.0000 H   0  0  0  0  0  0  0  0  0  0  0  0
    6.5027    4.1138    0.0000 H   0  0  0  0  0  0  0  0  0  0  0  0
    3.7735    3.6326    0.0000 H   0  0  0  0  0  0  0  0  0  0  0  0
    4.3293    0.4812    0.0000 C   0  0  0  0  0  0  0  0  0  0  0  0
    2.8257    1.0284    0.0000 C   0  0  0  0  0  0  0  0  0  0  0  0
    1.6001   -0.0000    0.0000 O   0  0  0  0  0  0  0  0  0  0  0  0
    0.0000   -0.0000    0.0000 C   0  0  0  0  0  0  0  0  0  0  0  0
   -0.2777    1.5757    0.0000 C   0  0  0  0  0  0  0  0  0  0  0  0
   -0.5558    3.1514    0.0000 H   0  0  0  0  0  0  0  0  0  0  0  0
   -1.7813    2.1229    0.0000 H   0  0  0  0  0  0  0  0  0  0  0  0
    0.9479    2.6041    0.0000 H   0  0  0  0  0  0  0  0  0  0  0  0
    0.0000   -1.6000    0.0000 C   0  0  0  0  0  0  0  0  0  0  0  0
    0.0000   -3.2000    0.0000 H   0  0  0  0  0  0  0  0  0  0  0  0
   -1.3857   -2.4000    0.0000 H   0  0  0  0  0  0  0  0  0  0  0  0
    1.3857   -2.4000    0.0000 H   0  0  0  0  0  0  0  0  0  0  0  0
   -1.6000   -0.0000    0.0000 H   0  0  0  0  0  0  0  0  0  0  0  0
    2.5479    2.6041    0.0000 O   0  0  0  0  0  0  0  0  0  0  0  0
    4.6070   -1.0945    0.0000 H   0  0  0  0  0  0  0  0  0  0  0  0
  1  2  1  0  0  0  0
  2  3  1  0  0  0  0
  3  4  1  0  0  0  0
  3  5  1  0  0  0  0
  3  6  1  0  0  0  0
  1  7  1  0  0  0  0
  7  8  1  0  0  0  0
  8  9  1  0  0  0  0
  9 10  1  0  0  0  0
  9 11  1  0  0  0  0
  9 12  1  0  0  0  0
  8 13  1  0  0  0  0
  8 14  1  0  0  0  0
  7 15  1  0  0  0  0
  1 16  2  0  0  0  0
  1 17  1  0  0  0  0
 17 18  1  0  0  0  0
 18 19  1  0  0  0  0
 19 20  1  0  0  0  0
 19 21  1  0  0  0  0
 19 22  1  0  0  0  0
 18 23  2  0  0  0  0
 23 24  1  0  0  0  0
 24 25  1  0  0  0  0
 25 26  1  0  0  0  0
 26 27  1  0  0  0  0
 27 28  1  0  0  0  0
 27 29  1  0  0  0  0
 27 30  1  0  0  0  0
 26 31  1  0  0  0  0
 31 32  1  0  0  0  0
 31 33  1  0  0  0  0
 31 34  1  0  0  0  0
 26 35  1  0  0  0  0
 24 36  2  0  0  0  0
 23 37  1  0  0  0  0
M  END
> <CAS>
31218-83-4

> <NAME>
PROPETAMPHOS

> <preferred_name>
Propetamphos

> <iupac>
propan-2-yl (2E)-3-{[(ethylamino)(methoxy)phosphorothioyl]oxy}but-2-enoate

> <SMILES>
C/C(=C\C(=O)OC(C)C)/OP(=S)(NCC)OC

> <Canonical_QSARr>
CC(=CC(=O)OC(C)C)OP(=S)(NCC)OC

> <InChI_Code_QSARr>
InChI=1S/C10H20NO4PS/c1-6-11-16(17,13-5)15-9(4)7-10(12)14-8(2)3/h7-8H,6H2,1-5H3,(H,11,17)/b9-7+

> <InChI Key_QSARr>
BZNDWPRGXNILMS-VQHVLOKHSA-N

> <Salt_Solvent>
?

> <WS Temperature>
24

> <WS Reference>
YALKOWSKY,SH & DANNENFELSER,RM (1992)

> <dsstox_substance_id>
DTXSID7032470

> <LogMolar>
-3.4078

$$$$
31508-00-6
  -INDIGO-01081615412D

 22 23  0  0  0  0  0  0  0  0999 V2000
    0.0001    0.0000    0.0000 C   0  0  0  0  0  0  0  0  0  0  0  0
    0.8001   -1.3856    0.0000 C   0  0  0  0  0  0  0  0  0  0  0  0
    0.0001   -2.7713    0.0000 H   0  0  0  0  0  0  0  0  0  0  0  0
    2.4000   -1.3856    0.0000 C   0  0  0  0  0  0  0  0  0  0  0  0
    3.2000   -2.7713    0.0000 Cl  0  0  0  0  0  0  0  0  0  0  0  0
    3.2000    0.0000    0.0000 C   0  0  0  0  0  0  0  0  0  0  0  0
    4.8000    0.0000    0.0000 Cl  0  0  0  0  0  0  0  0  0  0  0  0
    2.4000    1.3856    0.0000 C   0  0  0  0  0  0  0  0  0  0  0  0
    3.2000    2.7713    0.0000 H   0  0  0  0  0  0  0  0  0  0  0  0
    0.8001    1.3856    0.0000 C   0  0  0  0  0  0  0  0  0  0  0  0
    0.0001    2.7713    0.0000 Cl  0  0  0  0  0  0  0  0  0  0  0  0
   -1.6001   -0.0000    0.0000 C   0  0  0  0  0  0  0  0  0  0  0  0
   -2.4001    1.3856    0.0000 C   0  0  0  0  0  0  0  0  0  0  0  0
   -1.6001    2.7713    0.0000 H   0  0  0  0  0  0  0  0  0  0  0  0
   -4.0000    1.3856    0.0000 C   0  0  0  0  0  0  0  0  0  0  0  0
   -4.8000    2.7713    0.0000 H   0  0  0  0  0  0  0  0  0  0  0  0
   -4.8000   -0.0000    0.0000 C   0  0  0  0  0  0  0  0  0  0  0  0
   -6.4000   -0.0000    0.0000 Cl  0  0  0  0  0  0  0  0  0  0  0  0
   -4.0000   -1.3856    0.0000 C   0  0  0  0  0  0  0  0  0  0  0  0
   -4.8000   -2.7713    0.0000 Cl  0  0  0  0  0  0  0  0  0  0  0  0
   -2.4001   -1.3856    0.0000 C   0  0  0  0  0  0  0  0  0  0  0  0
   -1.6001   -2.7713    0.0000 H   0  0  0  0  0  0  0  0  0  0  0  0
  1  2  4  0  0  0  0
  2  3  1  0  0  0  0
  2  4  4  0  0  0  0
  4  5  1  0  0  0  0
  4  6  4  0  0  0  0
  6  7  1  0  0  0  0
  6  8  4  0  0  0  0
  8  9  1  0  0  0  0
  8 10  4  0  0  0  0
 10  1  4  0  0  0  0
 10 11  1  0  0  0  0
  1 12  1  0  0  0  0
 12 13  4  0  0  0  0
 13 14  1  0  0  0  0
 13 15  4  0  0  0  0
 15 16  1  0  0  0  0
 15 17  4  0  0  0  0
 17 18  1  0  0  0  0
 17 19  4  0  0  0  0
 19 20  1  0  0  0  0
 19 21  4  0  0  0  0
 21 12  4  0  0  0  0
 21 22  1  0  0  0  0
M  END
> <CAS>
31508-00-6

> <NAME>
2',3,4,4',5'-PCB

> <preferred_name>
2,3',4,4',5-Pentachlorobiphenyl

> <iupac>
2,3',4,4',5-pentachlorobiphenyl

> <SMILES>
Clc1ccc(cc1Cl)-c1cc(Cl)c(Cl)cc1Cl

> <Canonical_QSARr>
Clc1ccc(cc1Cl)-c1cc(Cl)c(Cl)cc1Cl

> <InChI_Code_QSARr>
InChI=1S/C12H5Cl5/c13-8-2-1-6(3-10(8)15)7-4-11(16)12(17)5-9(7)14/h1-5H

> <InChI Key_QSARr>
IUTPYMGCWINGEY-UHFFFAOYSA-N

> <Salt_Solvent>
?

> <WS Temperature>
20

> <WS Reference>
YALKOWSKY,SH & DANNENFELSER,RM (1992)

> <dsstox_substance_id>
DTXSID4032116

> <LogMolar>
-7.3867

$$$$
32430-00-5, 36634-48-7
  -INDIGO-01081615412D

 59 58  0  0  0  0  0  0  0  0999 V2000
  -16.3041   -4.2820    0.0000 C   0  0  0  0  0  0  0  0  0  0  0  0
  -17.3326   -3.0563    0.0000 O   0  0  0  0  0  0  0  0  0  0  0  0
  -16.8516   -5.7854    0.0000 O   0  0  0  0  0  0  0  0  0  0  0  0
  -18.4271   -6.0632    0.0000 H   0  0  0  0  0  0  0  0  0  0  0  0
  -14.7286   -4.0041    0.0000 C   0  0  0  0  0  0  0  0  0  0  0  0
  -13.1527   -3.7262    0.0000 C   0  0  0  0  0  0  0  0  0  0  0  0
  -11.5772   -3.4484    0.0000 C   0  0  0  0  0  0  0  0  0  0  0  0
  -10.0012   -3.1705    0.0000 C   0  0  0  0  0  0  0  0  0  0  0  0
   -8.4257   -2.8926    0.0000 C   0  0  0  0  0  0  0  0  0  0  0  0
   -6.8502   -2.6149    0.0000 C   0  0  0  0  0  0  0  0  0  0  0  0
   -5.2743   -2.3370    0.0000 C   0  0  0  0  0  0  0  0  0  0  0  0
   -3.6988   -2.0592    0.0000 C   0  0  0  0  0  0  0  0  0  0  0  0
   -3.1513   -0.5556    0.0000 C   0  0  0  0  0  0  0  0  0  0  0  0
   -1.5758   -0.2779    0.0000 C   0  0  0  0  0  0  0  0  0  0  0  0
    0.0002   -0.0000    0.0000 C   0  0  0  0  0  0  0  0  0  0  0  0
    0.0002    1.6000    0.0000 O   0  0  0  0  0  0  0  0  0  0  0  0
   -0.5473    3.1036    0.0000 S   0  0  0  0  0  0  0  0  0  0  0  0
    0.9563    3.6507    0.0000 O   0  0  0  0  0  0  0  0  0  0  0  0
    1.2339    5.2264    0.0000 H   0  0  0  0  0  0  0  0  0  0  0  0
   -1.0943    4.6070    0.0000 O   0  0  0  0  0  0  0  0  0  0  0  0
   -2.0509    2.5563    0.0000 O   0  0  0  0  0  0  0  0  0  0  0  0
    1.6001   -0.0000    0.0000 C   0  0  0  0  0  0  0  0  0  0  0  0
    3.2000   -0.0000    0.0000 C   0  0  0  0  0  0  0  0  0  0  0  0
    4.7999   -0.0000    0.0000 C   0  0  0  0  0  0  0  0  0  0  0  0
    6.3998   -0.0000    0.0000 C   0  0  0  0  0  0  0  0  0  0  0  0
    8.0002   -0.0000    0.0000 C   0  0  0  0  0  0  0  0  0  0  0  0
    9.6001   -0.0000    0.0000 C   0  0  0  0  0  0  0  0  0  0  0  0
   11.2000   -0.0000    0.0000 H   0  0  0  0  0  0  0  0  0  0  0  0
   10.3998   -1.3856    0.0000 H   0  0  0  0  0  0  0  0  0  0  0  0
   10.3998    1.3857    0.0000 H   0  0  0  0  0  0  0  0  0  0  0  0
    8.0002   -1.6001    0.0000 H   0  0  0  0  0  0  0  0  0  0  0  0
    8.0002    1.6000    0.0000 H   0  0  0  0  0  0  0  0  0  0  0  0
    6.3998   -1.6001    0.0000 H   0  0  0  0  0  0  0  0  0  0  0  0
    6.3998    1.6000    0.0000 H   0  0  0  0  0  0  0  0  0  0  0  0
    4.7999   -1.6001    0.0000 H   0  0  0  0  0  0  0  0  0  0  0  0
    4.7999    1.6000    0.0000 H   0  0  0  0  0  0  0  0  0  0  0  0
    3.2000   -1.6001    0.0000 H   0  0  0  0  0  0  0  0  0  0  0  0
    3.2000    1.6000    0.0000 H   0  0  0  0  0  0  0  0  0  0  0  0
    1.6001   -1.6001    0.0000 H   0  0  0  0  0  0  0  0  0  0  0  0
    1.6001    1.6000    0.0000 H   0  0  0  0  0  0  0  0  0  0  0  0
    0.0002   -1.6001    0.0000 H   0  0  0  0  0  0  0  0  0  0  0  0
   -1.2978   -1.8535    0.0000 H   0  0  0  0  0  0  0  0  0  0  0  0
   -1.8534    1.2978    0.0000 H   0  0  0  0  0  0  0  0  0  0  0  0
   -4.1798    0.6699    0.0000 H   0  0  0  0  0  0  0  0  0  0  0  0
   -2.6703   -3.2849    0.0000 H   0  0  0  0  0  0  0  0  0  0  0  0
   -4.9967   -3.9128    0.0000 H   0  0  0  0  0  0  0  0  0  0  0  0
   -5.5523   -0.7613    0.0000 H   0  0  0  0  0  0  0  0  0  0  0  0
   -6.5722   -4.1905    0.0000 H   0  0  0  0  0  0  0  0  0  0  0  0
   -7.1278   -1.0392    0.0000 H   0  0  0  0  0  0  0  0  0  0  0  0
   -8.1477   -4.4684    0.0000 H   0  0  0  0  0  0  0  0  0  0  0  0
   -8.7037   -1.3170    0.0000 H   0  0  0  0  0  0  0  0  0  0  0  0
   -9.7236   -4.7462    0.0000 H   0  0  0  0  0  0  0  0  0  0  0  0
  -10.2792   -1.5949    0.0000 H   0  0  0  0  0  0  0  0  0  0  0  0
  -11.2991   -5.0241    0.0000 H   0  0  0  0  0  0  0  0  0  0  0  0
  -11.8547   -1.8726    0.0000 H   0  0  0  0  0  0  0  0  0  0  0  0
  -12.8751   -5.3020    0.0000 H   0  0  0  0  0  0  0  0  0  0  0  0
  -13.4307   -2.1505    0.0000 H   0  0  0  0  0  0  0  0  0  0  0  0
  -14.4506   -5.5797    0.0000 H   0  0  0  0  0  0  0  0  0  0  0  0
  -15.0062   -2.4283    0.0000 H   0  0  0  0  0  0  0  0  0  0  0  0
  1  2  2  0  0  0  0
  1  3  1  0  0  0  0
  3  4  1  0  0  0  0
  1  5  1  0  0  0  0
  5  6  1  0  0  0  0
  6  7  1  0  0  0  0
  7  8  1  0  0  0  0
  8  9  1  0  0  0  0
  9 10  1  0  0  0  0
 10 11  1  0  0  0  0
 11 12  1  0  0  0  0
 12 13  2  0  0  0  0
 13 14  1  0  0  0  0
 14 15  1  0  0  0  0
 15 16  1  0  0  0  0
 16 17  1  0  0  0  0
 17 18  1  0  0  0  0
 18 19  1  0  0  0  0
 17 20  2  0  0  0  0
 17 21  2  0  0  0  0
 15 22  1  0  0  0  0
 22 23  1  0  0  0  0
 23 24  1  0  0  0  0
 24 25  1  0  0  0  0
 25 26  1  0  0  0  0
 26 27  1  0  0  0  0
 27 28  1  0  0  0  0
 27 29  1  0  0  0  0
 27 30  1  0  0  0  0
 26 31  1  0  0  0  0
 26 32  1  0  0  0  0
 25 33  1  0  0  0  0
 25 34  1  0  0  0  0
 24 35  1  0  0  0  0
 24 36  1  0  0  0  0
 23 37  1  0  0  0  0
 23 38  1  0  0  0  0
 22 39  1  0  0  0  0
 22 40  1  0  0  0  0
 15 41  1  0  0  0  0
 14 42  1  0  0  0  0
 14 43  1  0  0  0  0
 13 44  1  0  0  0  0
 12 45  1  0  0  0  0
 11 46  1  0  0  0  0
 11 47  1  0  0  0  0
 10 48  1  0  0  0  0
 10 49  1  0  0  0  0
  9 50  1  0  0  0  0
  9 51  1  0  0  0  0
  8 52  1  0  0  0  0
  8 53  1  0  0  0  0
  7 54  1  0  0  0  0
  7 55  1  0  0  0  0
  6 56  1  0  0  0  0
  6 57  1  0  0  0  0
  5 58  1  0  0  0  0
  5 59  1  0  0  0  0
M  END
> <CAS>
32430-00-5, 36634-48-7

> <NAME>
9-Octadecenoic acid, 12-(sulfooxy)-, (Z)-, 9-OCTADECENOIC ACID, 12-(SULFOOXY)-

> <preferred_name>


> <iupac>


> <SMILES>
CCCCCCC(C/C=C\CCCCCCCC(O)=O)OS(O)(=O)=O

> <Canonical_QSARr>
CCCCCCC(CC=CCCCCCCCC(O)=O)OS(O)(=O)=O

> <InChI_Code_QSARr>
InChI=1S/C18H34O6S/c1-2-3-4-11-14-17(24-25(21,22)23)15-12-9-7-5-6-8-10-13-16-18(19)20/h9,12,17H,2-8,10-11,13-16H2,1H3,(H,19,20)(H,21,22,23)/b12-9+

> <InChI Key_QSARr>
CYKFQSXTIVGYDT-FMIVXFBMSA-N

> <Salt_Solvent>
?

> <WS Temperature>
25

> <WS Reference>
BEILSTEIN

> <dsstox_substance_id>


> <LogMolar>
-0.5781

$$$$
32503-98-3
  -INDIGO-01081615412D

 18 17  0  0  0  0  0  0  0  0999 V2000
    3.1514   -0.5556    0.0000 C   0  0  0  0  0  0  0  0  0  0  0  0
    1.5757   -0.2778    0.0000 C   0  0  0  0  0  0  0  0  0  0  0  0
    1.2979   -1.8536    0.0000 O   0  0  0  0  0  0  0  0  0  0  0  0
    2.5235   -2.8820    0.0000 H   0  0  0  0  0  0  0  0  0  0  0  0
    0.0000   -0.0000    0.0000 C   0  0  0  0  0  0  0  0  0  0  0  0
    0.0000    1.6000    0.0000 N   0  0  0  0  0  0  0  0  0  0  0  0
   -1.3856    2.4000    0.0000 H   0  0  0  0  0  0  0  0  0  0  0  0
    1.2257    2.6285    0.0000 H   0  0  0  0  0  0  0  0  0  0  0  0
   -1.5999   -0.0000    0.0000 C   0  0  0  0  0  0  0  0  0  0  0  0
   -2.4001   -1.3856    0.0000 N   0  0  0  0  0  0  0  0  0  0  0  0
   -4.0000   -1.3856    0.0000 H   0  0  0  0  0  0  0  0  0  0  0  0
   -1.5999   -2.7713    0.0000 H   0  0  0  0  0  0  0  0  0  0  0  0
   -2.4001    1.3856    0.0000 O   0  0  0  0  0  0  0  0  0  0  0  0
    0.0000   -1.6000    0.0000 H   0  0  0  0  0  0  0  0  0  0  0  0
    1.8535    1.2978    0.0000 H   0  0  0  0  0  0  0  0  0  0  0  0
    4.1799    0.6700    0.0000 O   0  0  0  0  0  0  0  0  0  0  0  0
    5.7555    0.3922    0.0000 H   0  0  0  0  0  0  0  0  0  0  0  0
    3.6986   -2.0591    0.0000 O   0  0  0  0  0  0  0  0  0  0  0  0
  1  2  1  0  0  0  0
  2  3  1  0  0  0  0
  3  4  1  0  0  0  0
  2  5  1  0  0  0  0
  5  6  1  0  0  0  0
  6  7  1  0  0  0  0
  6  8  1  0  0  0  0
  5  9  1  0  0  0  0
  9 10  1  0  0  0  0
 10 11  1  0  0  0  0
 10 12  1  0  0  0  0
  9 13  2  0  0  0  0
  5 14  1  0  0  0  0
  2 15  1  0  0  0  0
  1 16  1  0  0  0  0
 16 17  1  0  0  0  0
  1 18  2  0  0  0  0
M  END
> <CAS>
32503-98-3

> <NAME>
Succinamic acid, 3-amino-2-hydroxy-

> <preferred_name>


> <iupac>


> <SMILES>
NC(=O)C(N)C(O)C(O)=O

> <Canonical_QSARr>
NC(=O)C(N)C(O)C(O)=O

> <InChI_Code_QSARr>
InChI=1S/C4H8N2O4/c5-1(3(6)8)2(7)4(9)10/h1-2,7H,5H2,(H2,6,8)(H,9,10)

> <InChI Key_QSARr>
XTAAXERUXNEDCQ-UHFFFAOYSA-N

> <Salt_Solvent>
?

> <WS Temperature>
20

> <WS Reference>
BEILSTEIN

> <dsstox_substance_id>


> <LogMolar>
-1.1494

$$$$
32598-12-2
  -INDIGO-01081615412D

 22 23  0  0  0  0  0  0  0  0999 V2000
    3.2000    0.0000    0.0000 C   0  0  0  0  0  0  0  0  0  0  0  0
    4.8000    0.0000    0.0000 Cl  0  0  0  0  0  0  0  0  0  0  0  0
    2.4000    1.3856    0.0000 C   0  0  0  0  0  0  0  0  0  0  0  0
    3.2000    2.7713    0.0000 H   0  0  0  0  0  0  0  0  0  0  0  0
    0.8001    1.3856    0.0000 C   0  0  0  0  0  0  0  0  0  0  0  0
    0.0001    2.7713    0.0000 H   0  0  0  0  0  0  0  0  0  0  0  0
    0.0001    0.0000    0.0000 C   0  0  0  0  0  0  0  0  0  0  0  0
   -1.6001   -0.0000    0.0000 C   0  0  0  0  0  0  0  0  0  0  0  0
   -2.4001    1.3856    0.0000 C   0  0  0  0  0  0  0  0  0  0  0  0
   -1.6001    2.7713    0.0000 Cl  0  0  0  0  0  0  0  0  0  0  0  0
   -4.0000    1.3856    0.0000 C   0  0  0  0  0  0  0  0  0  0  0  0
   -4.8000    2.7713    0.0000 H   0  0  0  0  0  0  0  0  0  0  0  0
   -4.8000   -0.0000    0.0000 C   0  0  0  0  0  0  0  0  0  0  0  0
   -6.4000   -0.0000    0.0000 Cl  0  0  0  0  0  0  0  0  0  0  0  0
   -4.0000   -1.3856    0.0000 C   0  0  0  0  0  0  0  0  0  0  0  0
   -4.8000   -2.7713    0.0000 H   0  0  0  0  0  0  0  0  0  0  0  0
   -2.4001   -1.3856    0.0000 C   0  0  0  0  0  0  0  0  0  0  0  0
   -1.6001   -2.7713    0.0000 Cl  0  0  0  0  0  0  0  0  0  0  0  0
    0.8001   -1.3856    0.0000 C   0  0  0  0  0  0  0  0  0  0  0  0
    0.0001   -2.7713    0.0000 H   0  0  0  0  0  0  0  0  0  0  0  0
    2.4000   -1.3856    0.0000 C   0  0  0  0  0  0  0  0  0  0  0  0
    3.2000   -2.7713    0.0000 H   0  0  0  0  0  0  0  0  0  0  0  0
  1  2  1  0  0  0  0
  1  3  4  0  0  0  0
  3  4  1  0  0  0  0
  3  5  4  0  0  0  0
  5  6  1  0  0  0  0
  5  7  4  0  0  0  0
  7  8  1  0  0  0  0
  8  9  4  0  0  0  0
  9 10  1  0  0  0  0
  9 11  4  0  0  0  0
 11 12  1  0  0  0  0
 11 13  4  0  0  0  0
 13 14  1  0  0  0  0
 13 15  4  0  0  0  0
 15 16  1  0  0  0  0
 15 17  4  0  0  0  0
 17  8  4  0  0  0  0
 17 18  1  0  0  0  0
  7 19  4  0  0  0  0
 19 20  1  0  0  0  0
 19 21  4  0  0  0  0
 21  1  4  0  0  0  0
 21 22  1  0  0  0  0
M  END
> <CAS>
32598-12-2

> <NAME>
2,4,4',6-Tetrachlorobiphenyl

> <preferred_name>
2,4,4',6-Tetrachlorobiphenyl

> <iupac>
1,3,5-trichloro-2-(4-chlorophenyl)benzene

> <SMILES>
Clc1cc(Cl)c(-c2ccc(Cl)cc2)c(Cl)c1

> <Canonical_QSARr>
Clc1cc(Cl)c(-c2ccc(Cl)cc2)c(Cl)c1

> <InChI_Code_QSARr>
InChI=1S/C12H6Cl4/c13-8-3-1-7(2-4-8)12-10(15)5-9(14)6-11(12)16/h1-6H

> <InChI Key_QSARr>
RZFZBHKDGHISSH-UHFFFAOYSA-N

> <Salt_Solvent>
?

> <WS Temperature>
25

> <WS Reference>
YALKOWSKY,SH & DANNENFELSER,RM (1992)

> <dsstox_substance_id>
DTXSID5074133

> <LogMolar>
-6.5058

$$$$
32774-16-6
  -INDIGO-01081615412D

 22 23  0  0  0  0  0  0  0  0999 V2000
   -0.0001   -0.0000    0.0000 C   0  0  0  0  0  0  0  0  0  0  0  0
    1.6001   -0.0000    0.0000 C   0  0  0  0  0  0  0  0  0  0  0  0
    2.4001   -1.3856    0.0000 C   0  0  0  0  0  0  0  0  0  0  0  0
    1.6001   -2.7713    0.0000 H   0  0  0  0  0  0  0  0  0  0  0  0
    4.0000   -1.3856    0.0000 C   0  0  0  0  0  0  0  0  0  0  0  0
    4.8000   -2.7713    0.0000 Cl  0  0  0  0  0  0  0  0  0  0  0  0
    4.8000    0.0000    0.0000 C   0  0  0  0  0  0  0  0  0  0  0  0
    6.4000    0.0000    0.0000 Cl  0  0  0  0  0  0  0  0  0  0  0  0
    4.0000    1.3856    0.0000 C   0  0  0  0  0  0  0  0  0  0  0  0
    4.8000    2.7713    0.0000 Cl  0  0  0  0  0  0  0  0  0  0  0  0
    2.4001    1.3856    0.0000 C   0  0  0  0  0  0  0  0  0  0  0  0
    1.6001    2.7713    0.0000 H   0  0  0  0  0  0  0  0  0  0  0  0
   -0.8001    1.3856    0.0000 C   0  0  0  0  0  0  0  0  0  0  0  0
   -0.0001    2.7713    0.0000 H   0  0  0  0  0  0  0  0  0  0  0  0
   -2.4000    1.3856    0.0000 C   0  0  0  0  0  0  0  0  0  0  0  0
   -3.2000    2.7713    0.0000 Cl  0  0  0  0  0  0  0  0  0  0  0  0
   -3.2000   -0.0000    0.0000 C   0  0  0  0  0  0  0  0  0  0  0  0
   -4.8000   -0.0000    0.0000 Cl  0  0  0  0  0  0  0  0  0  0  0  0
   -2.4000   -1.3856    0.0000 C   0  0  0  0  0  0  0  0  0  0  0  0
   -3.2000   -2.7713    0.0000 Cl  0  0  0  0  0  0  0  0  0  0  0  0
   -0.8001   -1.3856    0.0000 C   0  0  0  0  0  0  0  0  0  0  0  0
   -0.0001   -2.7713    0.0000 H   0  0  0  0  0  0  0  0  0  0  0  0
  1  2  1  0  0  0  0
  2  3  4  0  0  0  0
  3  4  1  0  0  0  0
  3  5  4  0  0  0  0
  5  6  1  0  0  0  0
  5  7  4  0  0  0  0
  7  8  1  0  0  0  0
  7  9  4  0  0  0  0
  9 10  1  0  0  0  0
  9 11  4  0  0  0  0
 11  2  4  0  0  0  0
 11 12  1  0  0  0  0
  1 13  4  0  0  0  0
 13 14  1  0  0  0  0
 13 15  4  0  0  0  0
 15 16  1  0  0  0  0
 15 17  4  0  0  0  0
 17 18  1  0  0  0  0
 17 19  4  0  0  0  0
 19 20  1  0  0  0  0
 19 21  4  0  0  0  0
 21  1  4  0  0  0  0
 21 22  1  0  0  0  0
M  END
> <CAS>
32774-16-6

> <NAME>
3,3',4,4',5,5'-PCB

> <preferred_name>
3,3',4,4',5,5'-Hexachlorobiphenyl

> <iupac>
3,3',4,4',5,5'-hexachlorobiphenyl

> <SMILES>
Clc1cc(cc(Cl)c1Cl)-c1cc(Cl)c(Cl)c(Cl)c1

> <Canonical_QSARr>
Clc1cc(cc(Cl)c1Cl)-c1cc(Cl)c(Cl)c(Cl)c1

> <InChI_Code_QSARr>
InChI=1S/C12H4Cl6/c13-7-1-5(2-8(14)11(7)17)6-3-9(15)12(18)10(16)4-6/h1-4H

> <InChI Key_QSARr>
ZHLICBPIXDOFFG-UHFFFAOYSA-N

> <Salt_Solvent>
?

> <WS Temperature>
25

> <WS Reference>
PATIL,GS (1991)

> <dsstox_substance_id>
DTXSID2038314

> <LogMolar>
-8.8498

$$$$
33025-41-1
  -INDIGO-01081615412D

 22 23  0  0  0  0  0  0  0  0999 V2000
    0.0001    0.0000    0.0000 C   0  0  0  0  0  0  0  0  0  0  0  0
    0.8001   -1.3856    0.0000 C   0  0  0  0  0  0  0  0  0  0  0  0
    0.0001   -2.7713    0.0000 H   0  0  0  0  0  0  0  0  0  0  0  0
    2.4000   -1.3856    0.0000 C   0  0  0  0  0  0  0  0  0  0  0  0
    3.2000   -2.7713    0.0000 H   0  0  0  0  0  0  0  0  0  0  0  0
    3.2000    0.0000    0.0000 C   0  0  0  0  0  0  0  0  0  0  0  0
    4.8000    0.0000    0.0000 Cl  0  0  0  0  0  0  0  0  0  0  0  0
    2.4000    1.3856    0.0000 C   0  0  0  0  0  0  0  0  0  0  0  0
    3.2000    2.7713    0.0000 Cl  0  0  0  0  0  0  0  0  0  0  0  0
    0.8001    1.3856    0.0000 C   0  0  0  0  0  0  0  0  0  0  0  0
    0.0001    2.7713    0.0000 Cl  0  0  0  0  0  0  0  0  0  0  0  0
   -1.6001   -0.0000    0.0000 C   0  0  0  0  0  0  0  0  0  0  0  0
   -2.4001    1.3856    0.0000 C   0  0  0  0  0  0  0  0  0  0  0  0
   -1.6001    2.7713    0.0000 H   0  0  0  0  0  0  0  0  0  0  0  0
   -4.0000    1.3856    0.0000 C   0  0  0  0  0  0  0  0  0  0  0  0
   -4.8000    2.7713    0.0000 H   0  0  0  0  0  0  0  0  0  0  0  0
   -4.8000   -0.0000    0.0000 C   0  0  0  0  0  0  0  0  0  0  0  0
   -6.4000   -0.0000    0.0000 Cl  0  0  0  0  0  0  0  0  0  0  0  0
   -4.0000   -1.3856    0.0000 C   0  0  0  0  0  0  0  0  0  0  0  0
   -4.8000   -2.7713    0.0000 H   0  0  0  0  0  0  0  0  0  0  0  0
   -2.4001   -1.3856    0.0000 C   0  0  0  0  0  0  0  0  0  0  0  0
   -1.6001   -2.7713    0.0000 H   0  0  0  0  0  0  0  0  0  0  0  0
  1  2  4  0  0  0  0
  2  3  1  0  0  0  0
  2  4  4  0  0  0  0
  4  5  1  0  0  0  0
  4  6  4  0  0  0  0
  6  7  1  0  0  0  0
  6  8  4  0  0  0  0
  8  9  1  0  0  0  0
  8 10  4  0  0  0  0
 10  1  4  0  0  0  0
 10 11  1  0  0  0  0
  1 12  1  0  0  0  0
 12 13  4  0  0  0  0
 13 14  1  0  0  0  0
 13 15  4  0  0  0  0
 15 16  1  0  0  0  0
 15 17  4  0  0  0  0
 17 18  1  0  0  0  0
 17 19  4  0  0  0  0
 19 20  1  0  0  0  0
 19 21  4  0  0  0  0
 21 12  4  0  0  0  0
 21 22  1  0  0  0  0
M  END
> <CAS>
33025-41-1

> <NAME>
2,3,4,4'-PCB

> <preferred_name>
2,3,4,4'-Tetrachlorobiphenyl

> <iupac>
1,2,3-trichloro-4-(4-chlorophenyl)benzene

> <SMILES>
Clc1ccc(cc1)-c1ccc(Cl)c(Cl)c1Cl

> <Canonical_QSARr>
Clc1ccc(cc1)-c1ccc(Cl)c(Cl)c1Cl

> <InChI_Code_QSARr>
InChI=1S/C12H6Cl4/c13-8-3-1-7(2-4-8)9-5-6-10(14)12(16)11(9)15/h1-6H

> <InChI Key_QSARr>
XLDBTRJKXLKYTC-UHFFFAOYSA-N

> <Salt_Solvent>
?

> <WS Temperature>
20

> <WS Reference>
YALKOWSKY,SH & DANNENFELSER,RM (1992)

> <dsstox_substance_id>
DTXSID3073474

> <LogMolar>
-6.8754

$$$$
33146-45-1
  -INDIGO-01081615412D

 22 23  0  0  0  0  0  0  0  0999 V2000
   -0.0001   -0.0000    0.0000 C   0  0  0  0  0  0  0  0  0  0  0  0
    1.6001   -0.0000    0.0000 C   0  0  0  0  0  0  0  0  0  0  0  0
    2.4001   -1.3856    0.0000 C   0  0  0  0  0  0  0  0  0  0  0  0
    1.6001   -2.7713    0.0000 H   0  0  0  0  0  0  0  0  0  0  0  0
    4.0000   -1.3856    0.0000 C   0  0  0  0  0  0  0  0  0  0  0  0
    4.8000   -2.7713    0.0000 H   0  0  0  0  0  0  0  0  0  0  0  0
    4.8000    0.0000    0.0000 C   0  0  0  0  0  0  0  0  0  0  0  0
    6.4000    0.0000    0.0000 H   0  0  0  0  0  0  0  0  0  0  0  0
    4.0000    1.3856    0.0000 C   0  0  0  0  0  0  0  0  0  0  0  0
    4.8000    2.7713    0.0000 H   0  0  0  0  0  0  0  0  0  0  0  0
    2.4001    1.3856    0.0000 C   0  0  0  0  0  0  0  0  0  0  0  0
    1.6001    2.7713    0.0000 H   0  0  0  0  0  0  0  0  0  0  0  0
   -0.8001    1.3856    0.0000 C   0  0  0  0  0  0  0  0  0  0  0  0
   -0.0001    2.7713    0.0000 Cl  0  0  0  0  0  0  0  0  0  0  0  0
   -2.4000    1.3856    0.0000 C   0  0  0  0  0  0  0  0  0  0  0  0
   -3.2000    2.7713    0.0000 H   0  0  0  0  0  0  0  0  0  0  0  0
   -3.2000   -0.0000    0.0000 C   0  0  0  0  0  0  0  0  0  0  0  0
   -4.8000   -0.0000    0.0000 H   0  0  0  0  0  0  0  0  0  0  0  0
   -2.4000   -1.3856    0.0000 C   0  0  0  0  0  0  0  0  0  0  0  0
   -3.2000   -2.7713    0.0000 H   0  0  0  0  0  0  0  0  0  0  0  0
   -0.8001   -1.3856    0.0000 C   0  0  0  0  0  0  0  0  0  0  0  0
   -0.0001   -2.7713    0.0000 Cl  0  0  0  0  0  0  0  0  0  0  0  0
  1  2  1  0  0  0  0
  2  3  4  0  0  0  0
  3  4  1  0  0  0  0
  3  5  4  0  0  0  0
  5  6  1  0  0  0  0
  5  7  4  0  0  0  0
  7  8  1  0  0  0  0
  7  9  4  0  0  0  0
  9 10  1  0  0  0  0
  9 11  4  0  0  0  0
 11  2  4  0  0  0  0
 11 12  1  0  0  0  0
  1 13  4  0  0  0  0
 13 14  1  0  0  0  0
 13 15  4  0  0  0  0
 15 16  1  0  0  0  0
 15 17  4  0  0  0  0
 17 18  1  0  0  0  0
 17 19  4  0  0  0  0
 19 20  1  0  0  0  0
 19 21  4  0  0  0  0
 21  1  4  0  0  0  0
 21 22  1  0  0  0  0
M  END
> <CAS>
33146-45-1

> <NAME>
2,6-DICHLOROBIPHENYL

> <preferred_name>
2,6-Dichlorobiphenyl

> <iupac>
2,6-dichlorobiphenyl

> <SMILES>
Clc1cccc(Cl)c1-c1ccccc1

> <Canonical_QSARr>
Clc1cccc(Cl)c1-c1ccccc1

> <InChI_Code_QSARr>
InChI=1S/C12H8Cl2/c13-10-7-4-8-11(14)12(10)9-5-2-1-3-6-9/h1-8H

> <InChI Key_QSARr>
IYZWUWBAFUBNCH-UHFFFAOYSA-N

> <Salt_Solvent>
?

> <WS Temperature>
25

> <WS Reference>
YALKOWSKY,SH & DANNENFELSER,RM (1992)

> <dsstox_substance_id>
DTXSID7038313

> <LogMolar>
-4.9665

$$$$
33284-53-6
  -INDIGO-01081615412D

 22 23  0  0  0  0  0  0  0  0999 V2000
    0.0001    0.0000    0.0000 C   0  0  0  0  0  0  0  0  0  0  0  0
    0.8001   -1.3856    0.0000 C   0  0  0  0  0  0  0  0  0  0  0  0
    0.0001   -2.7713    0.0000 H   0  0  0  0  0  0  0  0  0  0  0  0
    2.4000   -1.3856    0.0000 C   0  0  0  0  0  0  0  0  0  0  0  0
    3.2000   -2.7713    0.0000 Cl  0  0  0  0  0  0  0  0  0  0  0  0
    3.2000    0.0000    0.0000 C   0  0  0  0  0  0  0  0  0  0  0  0
    4.8000    0.0000    0.0000 Cl  0  0  0  0  0  0  0  0  0  0  0  0
    2.4000    1.3856    0.0000 C   0  0  0  0  0  0  0  0  0  0  0  0
    3.2000    2.7713    0.0000 Cl  0  0  0  0  0  0  0  0  0  0  0  0
    0.8001    1.3856    0.0000 C   0  0  0  0  0  0  0  0  0  0  0  0
    0.0001    2.7713    0.0000 Cl  0  0  0  0  0  0  0  0  0  0  0  0
   -1.6001   -0.0000    0.0000 C   0  0  0  0  0  0  0  0  0  0  0  0
   -2.4001    1.3856    0.0000 C   0  0  0  0  0  0  0  0  0  0  0  0
   -1.6001    2.7713    0.0000 H   0  0  0  0  0  0  0  0  0  0  0  0
   -4.0000    1.3856    0.0000 C   0  0  0  0  0  0  0  0  0  0  0  0
   -4.8000    2.7713    0.0000 H   0  0  0  0  0  0  0  0  0  0  0  0
   -4.8000   -0.0000    0.0000 C   0  0  0  0  0  0  0  0  0  0  0  0
   -6.4000   -0.0000    0.0000 H   0  0  0  0  0  0  0  0  0  0  0  0
   -4.0000   -1.3856    0.0000 C   0  0  0  0  0  0  0  0  0  0  0  0
   -4.8000   -2.7713    0.0000 H   0  0  0  0  0  0  0  0  0  0  0  0
   -2.4001   -1.3856    0.0000 C   0  0  0  0  0  0  0  0  0  0  0  0
   -1.6001   -2.7713    0.0000 H   0  0  0  0  0  0  0  0  0  0  0  0
  1  2  4  0  0  0  0
  2  3  1  0  0  0  0
  2  4  4  0  0  0  0
  4  5  1  0  0  0  0
  4  6  4  0  0  0  0
  6  7  1  0  0  0  0
  6  8  4  0  0  0  0
  8  9  1  0  0  0  0
  8 10  4  0  0  0  0
 10  1  4  0  0  0  0
 10 11  1  0  0  0  0
  1 12  1  0  0  0  0
 12 13  4  0  0  0  0
 13 14  1  0  0  0  0
 13 15  4  0  0  0  0
 15 16  1  0  0  0  0
 15 17  4  0  0  0  0
 17 18  1  0  0  0  0
 17 19  4  0  0  0  0
 19 20  1  0  0  0  0
 19 21  4  0  0  0  0
 21 12  4  0  0  0  0
 21 22  1  0  0  0  0
M  END
> <CAS>
33284-53-6

> <NAME>
2,3,4,5-PCB

> <preferred_name>
2,3,4,5-Tetrachlorobiphenyl

> <iupac>
1,2,3,4-tetrachloro-5-phenylbenzene

> <SMILES>
Clc1cc(-c2ccccc2)c(Cl)c(Cl)c1Cl

> <Canonical_QSARr>
Clc1cc(-c2ccccc2)c(Cl)c(Cl)c1Cl

> <InChI_Code_QSARr>
InChI=1S/C12H6Cl4/c13-9-6-8(7-4-2-1-3-5-7)10(14)12(16)11(9)15/h1-6H

> <InChI Key_QSARr>
HLQDGCWIOSOMDP-UHFFFAOYSA-N

> <Salt_Solvent>
?

> <WS Temperature>
25

> <WS Reference>
YALKOWSKY,SH & DANNENFELSER,RM (1992)

> <dsstox_substance_id>
DTXSID5074135

> <LogMolar>
-7.3192

$$$$
33693-04-8
  -INDIGO-01081615412D

 35 35  0  0  0  0  0  0  0  0999 V2000
    0.7999   -1.3856    0.0000 C   0  0  0  0  0  0  0  0  0  0  0  0
   -0.0000   -0.0000    0.0000 C   0  0  0  0  0  0  0  0  0  0  0  0
    1.3857    0.8000    0.0000 N   0  0  0  0  0  0  0  0  0  0  0  0
    2.7713   -0.0000    0.0000 C   0  0  0  0  0  0  0  0  0  0  0  0
    2.7713   -1.6000    0.0000 N   0  0  0  1  0  0  0  0  0  0  0  0
    4.1570   -2.4000    0.0000 C   0  0  0  0  0  0  0  0  0  0  0  0
    4.1570   -3.9999    0.0000 O   0  0  0  0  0  0  0  0  0  0  0  0
    5.5427   -4.8000    0.0000 C   0  0  0  0  0  0  0  0  0  0  0  0
    5.5427   -6.4000    0.0000 H   0  0  0  0  0  0  0  0  0  0  0  0
    6.9281   -5.5999    0.0000 H   0  0  0  0  0  0  0  0  0  0  0  0
    4.1570   -5.5999    0.0000 H   0  0  0  0  0  0  0  0  0  0  0  0
    5.5427   -1.6000    0.0000 N   0  0  0  1  0  0  0  0  0  0  0  0
    5.5427   -0.0000    0.0000 C   0  0  0  0  0  0  0  0  0  0  0  0
    6.9281    0.8000    0.0000 N   0  0  0  0  0  0  0  0  0  0  0  0
    8.3138   -0.0000    0.0000 C   0  0  0  0  0  0  0  0  0  0  0  0
    9.6995   -0.8000    0.0000 C   0  0  0  0  0  0  0  0  0  0  0  0
   11.0851   -1.6000    0.0000 H   0  0  0  0  0  0  0  0  0  0  0  0
   11.0851   -0.0000    0.0000 H   0  0  0  0  0  0  0  0  0  0  0  0
    9.6995   -2.4000    0.0000 H   0  0  0  0  0  0  0  0  0  0  0  0
    9.1139    1.3857    0.0000 H   0  0  0  0  0  0  0  0  0  0  0  0
    7.5139   -1.3856    0.0000 H   0  0  0  0  0  0  0  0  0  0  0  0
    6.9281    2.4000    0.0000 H   0  0  0  0  0  0  0  0  0  0  0  0
    4.1570    0.8000    0.0000 N   0  0  0  1  0  0  0  0  0  0  0  0
    1.3857    2.4000    0.0000 H   0  0  0  0  0  0  0  0  0  0  0  0
   -1.5035   -0.5472    0.0000 C   0  0  0  0  0  0  0  0  0  0  0  0
   -3.0070   -1.0944    0.0000 H   0  0  0  0  0  0  0  0  0  0  0  0
   -2.7292    0.4812    0.0000 H   0  0  0  0  0  0  0  0  0  0  0  0
   -1.7813   -2.1229    0.0000 H   0  0  0  0  0  0  0  0  0  0  0  0
   -0.7999    1.3857    0.0000 C   0  0  0  0  0  0  0  0  0  0  0  0
   -1.6001    2.7713    0.0000 H   0  0  0  0  0  0  0  0  0  0  0  0
   -2.4000    1.3857    0.0000 H   0  0  0  0  0  0  0  0  0  0  0  0
   -0.0000    2.7713    0.0000 H   0  0  0  0  0  0  0  0  0  0  0  0
   -0.0000   -2.7712    0.0000 H   0  0  0  0  0  0  0  0  0  0  0  0
    1.6001   -2.7712    0.0000 H   0  0  0  0  0  0  0  0  0  0  0  0
   -0.7756   -1.6634    0.0000 H   0  0  0  0  0  0  0  0  0  0  0  0
  1  2  1  0  0  0  0
  2  3  1  0  0  0  0
  3  4  1  0  0  0  0
  4  5  4  0  0  0  0
  5  6  4  0  0  0  0
  6  7  1  0  0  0  0
  7  8  1  0  0  0  0
  8  9  1  0  0  0  0
  8 10  1  0  0  0  0
  8 11  1  0  0  0  0
  6 12  4  0  0  0  0
 12 13  4  0  0  0  0
 13 14  1  0  0  0  0
 14 15  1  0  0  0  0
 15 16  1  0  0  0  0
 16 17  1  0  0  0  0
 16 18  1  0  0  0  0
 16 19  1  0  0  0  0
 15 20  1  0  0  0  0
 15 21  1  0  0  0  0
 14 22  1  0  0  0  0
 13 23  4  0  0  0  0
 23  4  4  0  0  0  0
  3 24  1  0  0  0  0
  2 25  1  0  0  0  0
 25 26  1  0  0  0  0
 25 27  1  0  0  0  0
 25 28  1  0  0  0  0
  2 29  1  0  0  0  0
 29 30  1  0  0  0  0
 29 31  1  0  0  0  0
 29 32  1  0  0  0  0
  1 33  1  0  0  0  0
  1 34  1  0  0  0  0
  1 35  1  0  0  0  0
M  END
> <CAS>
33693-04-8

> <NAME>
TERBUMETON

> <preferred_name>
Terbumeton

> <iupac>
N-tert-butyl-N'-ethyl-6-methoxy-1,3,5-triazine-2,4-diamine

> <SMILES>
CCNc1[n]c(NC(C)(C)C)[n]c([n]1)OC

> <Canonical_QSARr>
CCNc1[n]c(NC(C)(C)C)[n]c([n]1)OC

> <InChI_Code_QSARr>
InChI=1S/C10H19N5O/c1-6-11-7-12-8(15-10(2,3)4)14-9(13-7)16-5/h6H2,1-5H3,(H2,11,12,13,14,15)

> <InChI Key_QSARr>
BCQMBFHBDZVHKU-UHFFFAOYSA-N

> <Salt_Solvent>
?

> <WS Temperature>
20

> <WS Reference>
YALKOWSKY,SH & DANNENFELSER,RM (1992)

> <dsstox_substance_id>
DTXSID1042445

> <LogMolar>
-3.2388

$$$$
33862-44-1
  -INDIGO-01081615412D

 31 32  0  0  0  0  0  0  0  0999 V2000
    0.0000   -0.0001    0.0000 P   0  0  0  0  0  0  0  0  0  0  0  0
    0.0000    1.6001    0.0000 N   0  0  0  0  0  0  0  0  0  0  0  0
   -1.3857    2.4000    0.0000 N   0  0  0  0  0  0  0  0  0  0  0  0
   -1.3857    4.0000    0.0000 H   0  0  0  0  0  0  0  0  0  0  0  0
   -2.7713    1.6001    0.0000 H   0  0  0  0  0  0  0  0  0  0  0  0
    1.3857    2.4000    0.0000 H   0  0  0  0  0  0  0  0  0  0  0  0
    0.0000   -1.6000    0.0000 O   0  0  0  0  0  0  0  0  0  0  0  0
    1.5999   -0.0001    0.0000 O   0  0  0  0  0  0  0  0  0  0  0  0
    2.8256   -1.0285    0.0000 C   0  0  0  0  0  0  0  0  0  0  0  0
    2.8256   -2.6285    0.0000 C   0  0  0  0  0  0  0  0  0  0  0  0
    1.4401   -3.4284    0.0000 H   0  0  0  0  0  0  0  0  0  0  0  0
    4.2113   -3.4284    0.0000 C   0  0  0  0  0  0  0  0  0  0  0  0
    4.2113   -5.0284    0.0000 H   0  0  0  0  0  0  0  0  0  0  0  0
    5.5969   -2.6285    0.0000 C   0  0  0  0  0  0  0  0  0  0  0  0
    6.9826   -3.4284    0.0000 H   0  0  0  0  0  0  0  0  0  0  0  0
    5.5969   -1.0285    0.0000 C   0  0  0  0  0  0  0  0  0  0  0  0
    6.9826   -0.2285    0.0000 H   0  0  0  0  0  0  0  0  0  0  0  0
    4.2113   -0.2285    0.0000 C   0  0  0  0  0  0  0  0  0  0  0  0
    4.2113    1.3716    0.0000 H   0  0  0  0  0  0  0  0  0  0  0  0
   -1.5999   -0.0001    0.0000 O   0  0  0  0  0  0  0  0  0  0  0  0
   -2.4000   -1.3857    0.0000 C   0  0  0  0  0  0  0  0  0  0  0  0
   -4.0000   -1.3857    0.0000 C   0  0  0  0  0  0  0  0  0  0  0  0
   -4.8001   -0.0001    0.0000 H   0  0  0  0  0  0  0  0  0  0  0  0
   -4.8001   -2.7713    0.0000 C   0  0  0  0  0  0  0  0  0  0  0  0
   -6.4000   -2.7713    0.0000 H   0  0  0  0  0  0  0  0  0  0  0  0
   -4.0000   -4.1569    0.0000 C   0  0  0  0  0  0  0  0  0  0  0  0
   -4.8001   -5.5426    0.0000 H   0  0  0  0  0  0  0  0  0  0  0  0
   -2.4000   -4.1569    0.0000 C   0  0  0  0  0  0  0  0  0  0  0  0
   -1.5999   -5.5426    0.0000 H   0  0  0  0  0  0  0  0  0  0  0  0
   -1.5999   -2.7713    0.0000 C   0  0  0  0  0  0  0  0  0  0  0  0
    0.0000   -2.7713    0.0000 H   0  0  0  0  0  0  0  0  0  0  0  0
  1  2  1  0  0  0  0
  2  3  1  0  0  0  0
  3  4  1  0  0  0  0
  3  5  1  0  0  0  0
  2  6  1  0  0  0  0
  1  7  2  0  0  0  0
  1  8  1  0  0  0  0
  8  9  1  0  0  0  0
  9 10  4  0  0  0  0
 10 11  1  0  0  0  0
 10 12  4  0  0  0  0
 12 13  1  0  0  0  0
 12 14  4  0  0  0  0
 14 15  1  0  0  0  0
 14 16  4  0  0  0  0
 16 17  1  0  0  0  0
 16 18  4  0  0  0  0
 18  9  4  0  0  0  0
 18 19  1  0  0  0  0
  1 20  1  0  0  0  0
 20 21  1  0  0  0  0
 21 22  4  0  0  0  0
 22 23  1  0  0  0  0
 22 24  4  0  0  0  0
 24 25  1  0  0  0  0
 24 26  4  0  0  0  0
 26 27  1  0  0  0  0
 26 28  4  0  0  0  0
 28 29  1  0  0  0  0
 28 30  4  0  0  0  0
 30 21  4  0  0  0  0
 30 31  1  0  0  0  0
M  END
> <CAS>
33862-44-1

> <NAME>
PHOSPHOROHYDRAZIDIC ACID, DIPHENYL ESTER

> <preferred_name>
diphenoxyphosphorylhydrazine

> <iupac>
C12H13N2O3P

> <SMILES>
NNP(=O)(Oc1ccccc1)Oc1ccccc1

> <Canonical_QSARr>
NNP(=O)(Oc1ccccc1)Oc1ccccc1

> <InChI_Code_QSARr>
InChI=1S/C12H13N2O3P/c13-14-18(15,16-11-7-3-1-4-8-11)17-12-9-5-2-6-10-12/h1-10H,13H2,(H,14,15)

> <InChI Key_QSARr>
OTRWTWZSLKFJGX-UHFFFAOYSA-N

> <Salt_Solvent>
?

> <WS Temperature>
25

> <WS Reference>
BEILSTEIN

> <dsstox_substance_id>
DTXSID70300165

> <LogMolar>
-2.2373

$$$$
34123-59-6
  -INDIGO-01081615412D

 33 33  0  0  0  0  0  0  0  0999 V2000
    7.2001   -1.3857    0.0000 C   0  0  0  0  0  0  0  0  0  0  0  0
    6.3999   -2.7713    0.0000 O   0  0  0  0  0  0  0  0  0  0  0  0
    8.8000   -1.3857    0.0000 N   0  0  0  0  0  0  0  0  0  0  0  0
    9.5999   -2.7713    0.0000 C   0  0  0  0  0  0  0  0  0  0  0  0
   10.4001   -4.1569    0.0000 H   0  0  0  0  0  0  0  0  0  0  0  0
   11.2000   -2.7713    0.0000 H   0  0  0  0  0  0  0  0  0  0  0  0
    8.8000   -4.1569    0.0000 H   0  0  0  0  0  0  0  0  0  0  0  0
    9.5999    0.0000    0.0000 C   0  0  0  0  0  0  0  0  0  0  0  0
   10.4001    1.3857    0.0000 H   0  0  0  0  0  0  0  0  0  0  0  0
   11.2000    0.0000    0.0000 H   0  0  0  0  0  0  0  0  0  0  0  0
    8.8000    1.3857    0.0000 H   0  0  0  0  0  0  0  0  0  0  0  0
    6.3999    0.0000    0.0000 N   0  0  0  0  0  0  0  0  0  0  0  0
    4.8001    0.0000    0.0000 C   0  0  0  0  0  0  0  0  0  0  0  0
    3.9999    1.3857    0.0000 C   0  0  0  0  0  0  0  0  0  0  0  0
    4.8001    2.7713    0.0000 H   0  0  0  0  0  0  0  0  0  0  0  0
    2.4000    1.3857    0.0000 C   0  0  0  0  0  0  0  0  0  0  0  0
    1.6001    2.7713    0.0000 H   0  0  0  0  0  0  0  0  0  0  0  0
    1.6001    0.0000    0.0000 C   0  0  0  0  0  0  0  0  0  0  0  0
    0.0000    0.0000    0.0000 C   0  0  0  0  0  0  0  0  0  0  0  0
   -1.5036   -0.5472    0.0000 C   0  0  0  0  0  0  0  0  0  0  0  0
   -3.0070   -1.0945    0.0000 H   0  0  0  0  0  0  0  0  0  0  0  0
   -1.7813   -2.1229    0.0000 H   0  0  0  0  0  0  0  0  0  0  0  0
   -2.7291    0.4812    0.0000 H   0  0  0  0  0  0  0  0  0  0  0  0
    0.0000    1.6000    0.0000 C   0  0  0  0  0  0  0  0  0  0  0  0
    0.0000    3.2000    0.0000 H   0  0  0  0  0  0  0  0  0  0  0  0
   -1.3857    2.4000    0.0000 H   0  0  0  0  0  0  0  0  0  0  0  0
   -1.3857    0.8000    0.0000 H   0  0  0  0  0  0  0  0  0  0  0  0
    0.0000   -1.6000    0.0000 H   0  0  0  0  0  0  0  0  0  0  0  0
    2.4000   -1.3857    0.0000 C   0  0  0  0  0  0  0  0  0  0  0  0
    1.6001   -2.7713    0.0000 H   0  0  0  0  0  0  0  0  0  0  0  0
    3.9999   -1.3857    0.0000 C   0  0  0  0  0  0  0  0  0  0  0  0
    4.8001   -2.7713    0.0000 H   0  0  0  0  0  0  0  0  0  0  0  0
    7.2001    1.3857    0.0000 H   0  0  0  0  0  0  0  0  0  0  0  0
  1  2  2  0  0  0  0
  1  3  1  0  0  0  0
  3  4  1  0  0  0  0
  4  5  1  0  0  0  0
  4  6  1  0  0  0  0
  4  7  1  0  0  0  0
  3  8  1  0  0  0  0
  8  9  1  0  0  0  0
  8 10  1  0  0  0  0
  8 11  1  0  0  0  0
  1 12  1  0  0  0  0
 12 13  1  0  0  0  0
 13 14  4  0  0  0  0
 14 15  1  0  0  0  0
 14 16  4  0  0  0  0
 16 17  1  0  0  0  0
 16 18  4  0  0  0  0
 18 19  1  0  0  0  0
 19 20  1  0  0  0  0
 20 21  1  0  0  0  0
 20 22  1  0  0  0  0
 20 23  1  0  0  0  0
 19 24  1  0  0  0  0
 24 25  1  0  0  0  0
 24 26  1  0  0  0  0
 24 27  1  0  0  0  0
 19 28  1  0  0  0  0
 18 29  4  0  0  0  0
 29 30  1  0  0  0  0
 29 31  4  0  0  0  0
 31 13  4  0  0  0  0
 31 32  1  0  0  0  0
 12 33  1  0  0  0  0
M  END
> <CAS>
34123-59-6

> <NAME>
ISOPROTURON

> <preferred_name>
Isoproturon

> <iupac>
1,1-dimethyl-3-[4-(propan-2-yl)phenyl]urea

> <SMILES>
CN(C)C(=O)Nc1ccc(cc1)C(C)C

> <Canonical_QSARr>
CN(C)C(=O)Nc1ccc(cc1)C(C)C

> <InChI_Code_QSARr>
InChI=1S/C12H18N2O/c1-9(2)10-5-7-11(8-6-10)13-12(15)14(3)4/h5-9H,1-4H3,(H,13,15)

> <InChI Key_QSARr>
PUIYMUZLKQOUOZ-UHFFFAOYSA-N

> <Salt_Solvent>
?

> <WS Temperature>
22

> <WS Reference>
TOMLIN,C (1994)

> <dsstox_substance_id>
DTXSID1042077

> <LogMolar>
-3.5363

$$$$
34462-96-9
  -INDIGO-01081615412D

 24 25  0  0  0  0  0  0  0  0999 V2000
   -4.8000    2.7713    0.0000 C   0  0  0  0  0  0  0  0  0  0  0  0
   -5.6000    1.3857    0.0000 O   0  0  0  0  0  0  0  0  0  0  0  0
   -3.2000    2.7713    0.0000 O   0  0  0  0  0  0  0  0  0  0  0  0
   -2.4000    1.3857    0.0000 C   0  0  0  0  0  0  0  0  0  0  0  0
   -3.2000   -0.0000    0.0000 C   0  0  0  0  0  0  0  0  0  0  0  0
   -4.8000   -0.0000    0.0000 Br  0  0  0  0  0  0  0  0  0  0  0  0
   -2.4000   -1.3856    0.0000 C   0  0  0  0  0  0  0  0  0  0  0  0
   -3.2000   -2.7713    0.0000 H   0  0  0  0  0  0  0  0  0  0  0  0
   -0.8000   -1.3856    0.0000 C   0  0  0  0  0  0  0  0  0  0  0  0
   -0.0000   -2.7713    0.0000 Cl  0  0  0  0  0  0  0  0  0  0  0  0
   -0.0000   -0.0000    0.0000 C   0  0  0  0  0  0  0  0  0  0  0  0
    1.6000   -0.0000    0.0000 C   0  0  0  0  0  0  0  0  0  0  0  0
    2.4000    1.3857    0.0000 C   0  0  0  0  0  0  0  0  0  0  0  0
    1.6000    2.7713    0.0000 C   0  0  0  0  0  0  0  0  0  0  0  0
   -0.0000    2.7713    0.0000 N   0  0  0  1  0  0  0  0  0  0  0  0
   -0.8000    1.3857    0.0000 C   0  0  0  0  0  0  0  0  0  0  0  0
    2.4000    4.1570    0.0000 H   0  0  0  0  0  0  0  0  0  0  0  0
    4.0000    1.3857    0.0000 H   0  0  0  0  0  0  0  0  0  0  0  0
    2.4000   -1.3856    0.0000 H   0  0  0  0  0  0  0  0  0  0  0  0
   -5.6000    4.1570    0.0000 C   0  0  0  0  0  0  0  0  0  0  0  0
   -7.2000    4.1570    0.0000 C   0  0  0  0  0  0  0  0  0  0  0  0
   -8.0000    5.5426    0.0000 H   0  0  0  0  0  0  0  0  0  0  0  0
   -8.0000    2.7713    0.0000 H   0  0  0  0  0  0  0  0  0  0  0  0
   -4.8000    5.5426    0.0000 H   0  0  0  0  0  0  0  0  0  0  0  0
  1  2  2  0  0  0  0
  1  3  1  0  0  0  0
  3  4  1  0  0  0  0
  4  5  4  0  0  0  0
  5  6  1  0  0  0  0
  5  7  4  0  0  0  0
  7  8  1  0  0  0  0
  7  9  4  0  0  0  0
  9 10  1  0  0  0  0
  9 11  4  0  0  0  0
 11 12  4  0  0  0  0
 12 13  4  0  0  0  0
 13 14  4  0  0  0  0
 14 15  4  0  0  0  0
 15 16  4  0  0  0  0
 16  4  4  0  0  0  0
 16 11  4  0  0  0  0
 14 17  1  0  0  0  0
 13 18  1  0  0  0  0
 12 19  1  0  0  0  0
  1 20  1  0  0  0  0
 20 21  2  0  0  0  0
 21 22  1  0  0  0  0
 21 23  1  0  0  0  0
 20 24  1  0  0  0  0
M  END
> <CAS>
34462-96-9

> <NAME>
2-Propenoic acid, 7-bromo-5-chloro-8-quinolinyl

> <preferred_name>
Halacrinate

> <iupac>
7-bromo-5-chloroquinolin-8-yl prop-2-enoate

> <SMILES>
C=CC(=O)Oc1c(Br)cc(Cl)c2ccc[n]c21

> <Canonical_QSARr>
C=CC(=O)Oc1c(Br)cc(Cl)c2ccc[n]c21

> <InChI_Code_QSARr>
InChI=1S/C12H7BrClNO2/c1-2-10(16)17-12-8(13)6-9(14)7-4-3-5-15-11(7)12/h2-6H,1H2

> <InChI Key_QSARr>
YDNLKBDXQCHOTH-UHFFFAOYSA-N

> <Salt_Solvent>
?

> <WS Temperature>
20

> <WS Reference>
YALKOWSKY,SH & DANNENFELSER,RM (1992)

> <dsstox_substance_id>
DTXSID7042017

> <LogMolar>
-4.7168

$$$$
34681-23-7
  -INDIGO-01081615412D

 28 27  0  0  0  0  0  0  0  0999 V2000
   -1.3855   -2.4000    0.0000 C   0  0  0  0  0  0  0  0  0  0  0  0
   -1.3855   -0.8000    0.0000 C   0  0  0  0  0  0  0  0  0  0  0  0
   -2.7713    0.0001    0.0000 N   0  0  0  0  0  0  0  0  0  0  0  0
   -4.1569   -0.8000    0.0000 O   0  0  0  0  0  0  0  0  0  0  0  0
   -5.5426   -0.0001    0.0000 C   0  0  0  0  0  0  0  0  0  0  0  0
   -6.9282   -0.8000    0.0000 N   0  0  0  0  0  0  0  0  0  0  0  0
   -8.3139   -0.0001    0.0000 C   0  0  0  0  0  0  0  0  0  0  0  0
   -9.6995    0.8000    0.0000 H   0  0  0  0  0  0  0  0  0  0  0  0
   -9.6995   -0.8000    0.0000 H   0  0  0  0  0  0  0  0  0  0  0  0
   -8.3139    1.6000    0.0000 H   0  0  0  0  0  0  0  0  0  0  0  0
   -6.9282   -2.4000    0.0000 H   0  0  0  0  0  0  0  0  0  0  0  0
   -5.5426    1.6000    0.0000 O   0  0  0  0  0  0  0  0  0  0  0  0
    0.0000    0.0001    0.0000 C   0  0  0  0  0  0  0  0  0  0  0  0
    1.5035    0.5473    0.0000 S   0  0  0  0  0  0  0  0  0  0  0  0
    3.0070    1.0945    0.0000 C   0  0  0  0  0  0  0  0  0  0  0  0
    4.5105    1.6416    0.0000 H   0  0  0  0  0  0  0  0  0  0  0  0
    4.2328    0.0660    0.0000 H   0  0  0  0  0  0  0  0  0  0  0  0
    3.2848    2.6701    0.0000 H   0  0  0  0  0  0  0  0  0  0  0  0
    2.0508   -0.9563    0.0000 O   0  0  0  0  0  0  0  0  0  0  0  0
    1.2258    2.1229    0.0000 O   0  0  0  0  0  0  0  0  0  0  0  0
   -0.8001    1.3856    0.0000 C   0  0  0  0  0  0  0  0  0  0  0  0
   -1.6000    2.7713    0.0000 H   0  0  0  0  0  0  0  0  0  0  0  0
   -2.4001    1.3856    0.0000 H   0  0  0  0  0  0  0  0  0  0  0  0
    0.0000    2.7713    0.0000 H   0  0  0  0  0  0  0  0  0  0  0  0
    0.7999   -1.3856    0.0000 H   0  0  0  0  0  0  0  0  0  0  0  0
   -1.3855   -4.0000    0.0000 H   0  0  0  0  0  0  0  0  0  0  0  0
   -2.7713   -3.2000    0.0000 H   0  0  0  0  0  0  0  0  0  0  0  0
    0.0000   -3.2000    0.0000 H   0  0  0  0  0  0  0  0  0  0  0  0
  1  2  1  0  0  0  0
  2  3  2  0  0  0  0
  3  4  1  0  0  0  0
  4  5  1  0  0  0  0
  5  6  1  0  0  0  0
  6  7  1  0  0  0  0
  7  8  1  0  0  0  0
  7  9  1  0  0  0  0
  7 10  1  0  0  0  0
  6 11  1  0  0  0  0
  5 12  2  0  0  0  0
  2 13  1  0  0  0  0
 13 14  1  0  0  0  0
 14 15  1  0  0  0  0
 15 16  1  0  0  0  0
 15 17  1  0  0  0  0
 15 18  1  0  0  0  0
 14 19  2  0  0  0  0
 14 20  2  0  0  0  0
 13 21  1  0  0  0  0
 21 22  1  0  0  0  0
 21 23  1  0  0  0  0
 21 24  1  0  0  0  0
 13 25  1  0  0  0  0
  1 26  1  0  0  0  0
  1 27  1  0  0  0  0
  1 28  1  0  0  0  0
M  END
> <CAS>
34681-23-7

> <NAME>
Butoxycarboxim

> <preferred_name>
Butoxycarboxim

> <iupac>
(5E)-6,7-dimethyl-4-oxa-8-thia-2,5-diazanon-5-en-3-one 8,8-dioxide

> <SMILES>
C/C(=N\OC(=O)NC)/C(C)S(C)(=O)=O

> <Canonical_QSARr>
CC(=NOC(=O)NC)C(C)S(C)(=O)=O

> <InChI_Code_QSARr>
InChI=1S/C7H14N2O4S/c1-5(6(2)14(4,11)12)9-13-7(10)8-3/h6H,1-4H3,(H,8,10)/b9-5+

> <InChI Key_QSARr>
CTJBHIROCMPUKL-WEVVVXLNSA-N

> <Salt_Solvent>
?

> <WS Temperature>
20

> <WS Reference>
TOMLIN,C (1994)

> <dsstox_substance_id>
DTXSID0041698

> <LogMolar>
-0.0267

$$$$
34883-39-1
  -INDIGO-01081615412D

 22 23  0  0  0  0  0  0  0  0999 V2000
    0.0001    0.0000    0.0000 C   0  0  0  0  0  0  0  0  0  0  0  0
    0.8001   -1.3856    0.0000 C   0  0  0  0  0  0  0  0  0  0  0  0
    0.0001   -2.7713    0.0000 H   0  0  0  0  0  0  0  0  0  0  0  0
    2.4000   -1.3856    0.0000 C   0  0  0  0  0  0  0  0  0  0  0  0
    3.2000   -2.7713    0.0000 Cl  0  0  0  0  0  0  0  0  0  0  0  0
    3.2000    0.0000    0.0000 C   0  0  0  0  0  0  0  0  0  0  0  0
    4.8000    0.0000    0.0000 H   0  0  0  0  0  0  0  0  0  0  0  0
    2.4000    1.3856    0.0000 C   0  0  0  0  0  0  0  0  0  0  0  0
    3.2000    2.7713    0.0000 H   0  0  0  0  0  0  0  0  0  0  0  0
    0.8001    1.3856    0.0000 C   0  0  0  0  0  0  0  0  0  0  0  0
    0.0001    2.7713    0.0000 Cl  0  0  0  0  0  0  0  0  0  0  0  0
   -1.6001   -0.0000    0.0000 C   0  0  0  0  0  0  0  0  0  0  0  0
   -2.4001    1.3856    0.0000 C   0  0  0  0  0  0  0  0  0  0  0  0
   -1.6001    2.7713    0.0000 H   0  0  0  0  0  0  0  0  0  0  0  0
   -4.0000    1.3856    0.0000 C   0  0  0  0  0  0  0  0  0  0  0  0
   -4.8000    2.7713    0.0000 H   0  0  0  0  0  0  0  0  0  0  0  0
   -4.8000   -0.0000    0.0000 C   0  0  0  0  0  0  0  0  0  0  0  0
   -6.4000   -0.0000    0.0000 H   0  0  0  0  0  0  0  0  0  0  0  0
   -4.0000   -1.3856    0.0000 C   0  0  0  0  0  0  0  0  0  0  0  0
   -4.8000   -2.7713    0.0000 H   0  0  0  0  0  0  0  0  0  0  0  0
   -2.4001   -1.3856    0.0000 C   0  0  0  0  0  0  0  0  0  0  0  0
   -1.6001   -2.7713    0.0000 H   0  0  0  0  0  0  0  0  0  0  0  0
  1  2  4  0  0  0  0
  2  3  1  0  0  0  0
  2  4  4  0  0  0  0
  4  5  1  0  0  0  0
  4  6  4  0  0  0  0
  6  7  1  0  0  0  0
  6  8  4  0  0  0  0
  8  9  1  0  0  0  0
  8 10  4  0  0  0  0
 10  1  4  0  0  0  0
 10 11  1  0  0  0  0
  1 12  1  0  0  0  0
 12 13  4  0  0  0  0
 13 14  1  0  0  0  0
 13 15  4  0  0  0  0
 15 16  1  0  0  0  0
 15 17  4  0  0  0  0
 17 18  1  0  0  0  0
 17 19  4  0  0  0  0
 19 20  1  0  0  0  0
 19 21  4  0  0  0  0
 21 12  4  0  0  0  0
 21 22  1  0  0  0  0
M  END
> <CAS>
34883-39-1

> <NAME>
2,5-DICHLOROBIPHENYL

> <preferred_name>
2,5-Dichlorobiphenyl

> <iupac>
1,4-dichloro-2-phenylbenzene

> <SMILES>
Clc1cc(-c2ccccc2)c(Cl)cc1

> <Canonical_QSARr>
Clc1cc(-c2ccccc2)c(Cl)cc1

> <InChI_Code_QSARr>
InChI=1S/C12H8Cl2/c13-10-6-7-12(14)11(8-10)9-4-2-1-3-5-9/h1-8H

> <InChI Key_QSARr>
KKQWHYGECTYFIA-UHFFFAOYSA-N

> <Salt_Solvent>
?

> <WS Temperature>
25

> <WS Reference>
YALKOWSKY,SH & DANNENFELSER,RM (1992)

> <dsstox_substance_id>
DTXSID7073480

> <LogMolar>
-5.2993

$$$$
35065-27-1
  -INDIGO-01081615412D

 22 23  0  0  0  0  0  0  0  0999 V2000
    0.0001    0.0000    0.0000 C   0  0  0  0  0  0  0  0  0  0  0  0
    0.8001   -1.3856    0.0000 C   0  0  0  0  0  0  0  0  0  0  0  0
    0.0001   -2.7713    0.0000 Cl  0  0  0  0  0  0  0  0  0  0  0  0
    2.4000   -1.3856    0.0000 C   0  0  0  0  0  0  0  0  0  0  0  0
    3.2000   -2.7713    0.0000 H   0  0  0  0  0  0  0  0  0  0  0  0
    3.2000    0.0000    0.0000 C   0  0  0  0  0  0  0  0  0  0  0  0
    4.8000    0.0000    0.0000 Cl  0  0  0  0  0  0  0  0  0  0  0  0
    2.4000    1.3856    0.0000 C   0  0  0  0  0  0  0  0  0  0  0  0
    3.2000    2.7713    0.0000 Cl  0  0  0  0  0  0  0  0  0  0  0  0
    0.8001    1.3856    0.0000 C   0  0  0  0  0  0  0  0  0  0  0  0
    0.0001    2.7713    0.0000 H   0  0  0  0  0  0  0  0  0  0  0  0
   -1.6001   -0.0000    0.0000 C   0  0  0  0  0  0  0  0  0  0  0  0
   -2.4001    1.3856    0.0000 C   0  0  0  0  0  0  0  0  0  0  0  0
   -1.6001    2.7713    0.0000 H   0  0  0  0  0  0  0  0  0  0  0  0
   -4.0000    1.3856    0.0000 C   0  0  0  0  0  0  0  0  0  0  0  0
   -4.8000    2.7713    0.0000 Cl  0  0  0  0  0  0  0  0  0  0  0  0
   -4.8000   -0.0000    0.0000 C   0  0  0  0  0  0  0  0  0  0  0  0
   -6.4000   -0.0000    0.0000 Cl  0  0  0  0  0  0  0  0  0  0  0  0
   -4.0000   -1.3856    0.0000 C   0  0  0  0  0  0  0  0  0  0  0  0
   -4.8000   -2.7713    0.0000 H   0  0  0  0  0  0  0  0  0  0  0  0
   -2.4001   -1.3856    0.0000 C   0  0  0  0  0  0  0  0  0  0  0  0
   -1.6001   -2.7713    0.0000 Cl  0  0  0  0  0  0  0  0  0  0  0  0
  1  2  4  0  0  0  0
  2  3  1  0  0  0  0
  2  4  4  0  0  0  0
  4  5  1  0  0  0  0
  4  6  4  0  0  0  0
  6  7  1  0  0  0  0
  6  8  4  0  0  0  0
  8  9  1  0  0  0  0
  8 10  4  0  0  0  0
 10  1  4  0  0  0  0
 10 11  1  0  0  0  0
  1 12  1  0  0  0  0
 12 13  4  0  0  0  0
 13 14  1  0  0  0  0
 13 15  4  0  0  0  0
 15 16  1  0  0  0  0
 15 17  4  0  0  0  0
 17 18  1  0  0  0  0
 17 19  4  0  0  0  0
 19 20  1  0  0  0  0
 19 21  4  0  0  0  0
 21 12  4  0  0  0  0
 21 22  1  0  0  0  0
M  END
> <CAS>
35065-27-1

> <NAME>
2,4,5,2',4',5'-HEXACHLOROBIPHENYL

> <preferred_name>
2,2',4,4',5,5'-Hexachlorobiphenyl

> <iupac>
2,2',4,4',5,5'-hexachlorobiphenyl

> <SMILES>
Clc1cc(Cl)c(Cl)cc1-c1cc(Cl)c(Cl)cc1Cl

> <Canonical_QSARr>
Clc1cc(Cl)c(Cl)cc1-c1cc(Cl)c(Cl)cc1Cl

> <InChI_Code_QSARr>
InChI=1S/C12H4Cl6/c13-7-3-11(17)9(15)1-5(7)6-2-10(16)12(18)4-8(6)14/h1-4H

> <InChI Key_QSARr>
MVWHGTYKUMDIHL-UHFFFAOYSA-N

> <Salt_Solvent>
?

> <WS Temperature>
24

> <WS Reference>
CHIOU,CT ET AL. (1977)

> <dsstox_substance_id>
DTXSID2032180

> <LogMolar>
-8.5796

$$$$
35224-54-5
  -INDIGO-01081615412D

 23 23  0  0  0  0  0  0  0  0999 V2000
   -4.1569    2.4000    0.0000 Cl  0  0  0  0  0  0  0  0  0  0  0  0
   -4.1569    0.8000    0.0000 C   0  0  0  0  0  0  0  0  0  0  0  0
   -5.5425   -0.0001    0.0000 C   0  0  0  0  0  0  0  0  0  0  0  0
   -6.9282    0.8000    0.0000 H   0  0  0  0  0  0  0  0  0  0  0  0
   -5.5425   -1.6000    0.0000 C   0  0  0  0  0  0  0  0  0  0  0  0
   -6.9282   -2.4000    0.0000 H   0  0  0  0  0  0  0  0  0  0  0  0
   -4.1569   -2.4000    0.0000 C   0  0  0  0  0  0  0  0  0  0  0  0
   -4.1569   -4.0000    0.0000 H   0  0  0  0  0  0  0  0  0  0  0  0
   -2.7712   -1.6000    0.0000 C   0  0  0  0  0  0  0  0  0  0  0  0
   -1.3857   -2.4000    0.0000 H   0  0  0  0  0  0  0  0  0  0  0  0
   -2.7712   -0.0001    0.0000 C   0  0  0  0  0  0  0  0  0  0  0  0
   -1.3857    0.8000    0.0000 N   0  0  0  0  0  0  0  0  0  0  0  0
   -0.0000    0.0001    0.0000 C   0  0  0  0  0  0  0  0  0  0  0  0
    0.8000    1.3856    0.0000 C   0  0  0  0  0  0  0  0  0  0  0  0
   -0.0000    2.7713    0.0000 O   0  0  0  0  0  0  0  0  0  0  0  0
    2.4001    1.3856    0.0000 O   0  0  0  0  0  0  0  0  0  0  0  0
    3.2000    2.7713    0.0000 H   0  0  0  0  0  0  0  0  0  0  0  0
    1.3856   -0.8000    0.0000 C   0  0  0  0  0  0  0  0  0  0  0  0
    2.7713   -1.6000    0.0000 H   0  0  0  0  0  0  0  0  0  0  0  0
    2.7713    0.0001    0.0000 H   0  0  0  0  0  0  0  0  0  0  0  0
    1.3856   -2.4000    0.0000 H   0  0  0  0  0  0  0  0  0  0  0  0
   -0.8000   -1.3856    0.0000 H   0  0  0  0  0  0  0  0  0  0  0  0
   -1.3857    2.4000    0.0000 H   0  0  0  0  0  0  0  0  0  0  0  0
  1  2  1  0  0  0  0
  2  3  4  0  0  0  0
  3  4  1  0  0  0  0
  3  5  4  0  0  0  0
  5  6  1  0  0  0  0
  5  7  4  0  0  0  0
  7  8  1  0  0  0  0
  7  9  4  0  0  0  0
  9 10  1  0  0  0  0
  9 11  4  0  0  0  0
 11  2  4  0  0  0  0
 11 12  1  0  0  0  0
 12 13  1  0  0  0  0
 13 14  1  0  0  0  0
 14 15  2  0  0  0  0
 14 16  1  0  0  0  0
 16 17  1  0  0  0  0
 13 18  1  0  0  0  0
 18 19  1  0  0  0  0
 18 20  1  0  0  0  0
 18 21  1  0  0  0  0
 13 22  1  0  0  0  0
 12 23  1  0  0  0  0
M  END
> <CAS>
35224-54-5

> <NAME>
DL-Alanine, N-(2-chlorophenyl)-

> <preferred_name>
PUBCHEM_40800928

> <iupac>
C9H10ClNO2

> <SMILES>
C[C@H](Nc1ccccc1Cl)C(O)=O

> <Canonical_QSARr>
CC(Nc1ccccc1Cl)C(O)=O

> <InChI_Code_QSARr>
InChI=1S/C9H10ClNO2/c1-6(9(12)13)11-8-5-3-2-4-7(8)10/h2-6,11H,1H3,(H,12,13)

> <InChI Key_QSARr>
AWRNWLYWQPIEDM-UHFFFAOYSA-N

> <Salt_Solvent>
?

> <WS Temperature>
30

> <WS Reference>
BEILSTEIN

> <dsstox_substance_id>
DTXSID30654636

> <LogMolar>
-2.3271

$$$$
35400-43-2
  -INDIGO-01081615412D

 37 37  0  0  0  0  0  0  0  0999 V2000
   -3.9999    1.3857    0.0000 P   0  0  0  0  0  0  0  0  0  0  0  0
   -2.6143    2.1856    0.0000 O   0  0  0  0  0  0  0  0  0  0  0  0
   -2.6143    3.7856    0.0000 C   0  0  0  0  0  0  0  0  0  0  0  0
   -2.6143    5.3856    0.0000 C   0  0  0  0  0  0  0  0  0  0  0  0
   -2.6143    6.9856    0.0000 H   0  0  0  0  0  0  0  0  0  0  0  0
   -1.2287    6.1857    0.0000 H   0  0  0  0  0  0  0  0  0  0  0  0
   -3.9999    6.1857    0.0000 H   0  0  0  0  0  0  0  0  0  0  0  0
   -1.0144    3.7856    0.0000 H   0  0  0  0  0  0  0  0  0  0  0  0
   -4.2145    3.7856    0.0000 H   0  0  0  0  0  0  0  0  0  0  0  0
   -3.2001    0.0000    0.0000 S   0  0  0  0  0  0  0  0  0  0  0  0
   -1.5999    0.0000    0.0000 C   0  0  0  0  0  0  0  0  0  0  0  0
   -0.0000    0.0000    0.0000 C   0  0  0  0  0  0  0  0  0  0  0  0
    1.6001    0.0000    0.0000 C   0  0  0  0  0  0  0  0  0  0  0  0
    3.2000    0.0000    0.0000 H   0  0  0  0  0  0  0  0  0  0  0  0
    2.3999   -1.3857    0.0000 H   0  0  0  0  0  0  0  0  0  0  0  0
    2.3999    1.3857    0.0000 H   0  0  0  0  0  0  0  0  0  0  0  0
   -0.0000   -1.6000    0.0000 H   0  0  0  0  0  0  0  0  0  0  0  0
   -0.0000    1.6000    0.0000 H   0  0  0  0  0  0  0  0  0  0  0  0
   -1.5999   -1.6000    0.0000 H   0  0  0  0  0  0  0  0  0  0  0  0
   -1.5999    1.6000    0.0000 H   0  0  0  0  0  0  0  0  0  0  0  0
   -4.8000    2.7712    0.0000 O   0  0  0  0  0  0  0  0  0  0  0  0
   -6.4001    2.7712    0.0000 C   0  0  0  0  0  0  0  0  0  0  0  0
   -7.1999    4.1569    0.0000 C   0  0  0  0  0  0  0  0  0  0  0  0
   -6.4001    5.5426    0.0000 H   0  0  0  0  0  0  0  0  0  0  0  0
   -8.8001    4.1569    0.0000 C   0  0  0  0  0  0  0  0  0  0  0  0
   -9.5999    5.5426    0.0000 H   0  0  0  0  0  0  0  0  0  0  0  0
   -9.5999    2.7712    0.0000 C   0  0  0  0  0  0  0  0  0  0  0  0
  -11.2000    2.7712    0.0000 S   0  0  0  0  0  0  0  0  0  0  0  0
  -12.0001    4.1569    0.0000 C   0  0  0  0  0  0  0  0  0  0  0  0
  -13.6000    4.1569    0.0000 H   0  0  0  0  0  0  0  0  0  0  0  0
  -12.7999    5.5426    0.0000 H   0  0  0  0  0  0  0  0  0  0  0  0
  -12.7999    2.7712    0.0000 H   0  0  0  0  0  0  0  0  0  0  0  0
   -8.8001    1.3857    0.0000 C   0  0  0  0  0  0  0  0  0  0  0  0
   -9.5999    0.0000    0.0000 H   0  0  0  0  0  0  0  0  0  0  0  0
   -7.1999    1.3857    0.0000 C   0  0  0  0  0  0  0  0  0  0  0  0
   -6.4001    0.0000    0.0000 H   0  0  0  0  0  0  0  0  0  0  0  0
   -5.3857    0.5856    0.0000 S   0  0  0  0  0  0  0  0  0  0  0  0
  1  2  1  0  0  0  0
  2  3  1  0  0  0  0
  3  4  1  0  0  0  0
  4  5  1  0  0  0  0
  4  6  1  0  0  0  0
  4  7  1  0  0  0  0
  3  8  1  0  0  0  0
  3  9  1  0  0  0  0
  1 10  1  0  0  0  0
 10 11  1  0  0  0  0
 11 12  1  0  0  0  0
 12 13  1  0  0  0  0
 13 14  1  0  0  0  0
 13 15  1  0  0  0  0
 13 16  1  0  0  0  0
 12 17  1  0  0  0  0
 12 18  1  0  0  0  0
 11 19  1  0  0  0  0
 11 20  1  0  0  0  0
  1 21  1  0  0  0  0
 21 22  1  0  0  0  0
 22 23  4  0  0  0  0
 23 24  1  0  0  0  0
 23 25  4  0  0  0  0
 25 26  1  0  0  0  0
 25 27  4  0  0  0  0
 27 28  1  0  0  0  0
 28 29  1  0  0  0  0
 29 30  1  0  0  0  0
 29 31  1  0  0  0  0
 29 32  1  0  0  0  0
 27 33  4  0  0  0  0
 33 34  1  0  0  0  0
 33 35  4  0  0  0  0
 35 22  4  0  0  0  0
 35 36  1  0  0  0  0
  1 37  2  0  0  0  0
M  END
> <CAS>
35400-43-2

> <NAME>
SULPROFOS

> <preferred_name>
Sulprofos

> <iupac>
O-ethyl O-[4-(methylsulfanyl)phenyl] S-propyl phosphorodithioate

> <SMILES>
CSc1ccc(cc1)OP(=S)(OCC)SCCC

> <Canonical_QSARr>
CSc1ccc(cc1)OP(=S)(OCC)SCCC

> <InChI_Code_QSARr>
InChI=1S/C12H19O2PS3/c1-4-10-18-15(16,13-5-2)14-11-6-8-12(17-3)9-7-11/h6-9H,4-5,10H2,1-3H3

> <InChI Key_QSARr>
JXHJNEJVUNHLKO-UHFFFAOYSA-N

> <Salt_Solvent>
?

> <WS Temperature>
20

> <WS Reference>
TOMLIN,C (1997)

> <dsstox_substance_id>
DTXSID8032675

> <LogMolar>
-6.0171

$$$$
35693-92-6
  -INDIGO-01081615412D

 22 23  0  0  0  0  0  0  0  0999 V2000
    0.0001    0.0000    0.0000 C   0  0  0  0  0  0  0  0  0  0  0  0
    0.8001   -1.3856    0.0000 C   0  0  0  0  0  0  0  0  0  0  0  0
    0.0001   -2.7713    0.0000 Cl  0  0  0  0  0  0  0  0  0  0  0  0
    2.4000   -1.3856    0.0000 C   0  0  0  0  0  0  0  0  0  0  0  0
    3.2000   -2.7713    0.0000 H   0  0  0  0  0  0  0  0  0  0  0  0
    3.2000    0.0000    0.0000 C   0  0  0  0  0  0  0  0  0  0  0  0
    4.8000    0.0000    0.0000 Cl  0  0  0  0  0  0  0  0  0  0  0  0
    2.4000    1.3856    0.0000 C   0  0  0  0  0  0  0  0  0  0  0  0
    3.2000    2.7713    0.0000 H   0  0  0  0  0  0  0  0  0  0  0  0
    0.8001    1.3856    0.0000 C   0  0  0  0  0  0  0  0  0  0  0  0
    0.0001    2.7713    0.0000 Cl  0  0  0  0  0  0  0  0  0  0  0  0
   -1.6001   -0.0000    0.0000 C   0  0  0  0  0  0  0  0  0  0  0  0
   -2.4001    1.3856    0.0000 C   0  0  0  0  0  0  0  0  0  0  0  0
   -1.6001    2.7713    0.0000 H   0  0  0  0  0  0  0  0  0  0  0  0
   -4.0000    1.3856    0.0000 C   0  0  0  0  0  0  0  0  0  0  0  0
   -4.8000    2.7713    0.0000 H   0  0  0  0  0  0  0  0  0  0  0  0
   -4.8000   -0.0000    0.0000 C   0  0  0  0  0  0  0  0  0  0  0  0
   -6.4000   -0.0000    0.0000 H   0  0  0  0  0  0  0  0  0  0  0  0
   -4.0000   -1.3856    0.0000 C   0  0  0  0  0  0  0  0  0  0  0  0
   -4.8000   -2.7713    0.0000 H   0  0  0  0  0  0  0  0  0  0  0  0
   -2.4001   -1.3856    0.0000 C   0  0  0  0  0  0  0  0  0  0  0  0
   -1.6001   -2.7713    0.0000 H   0  0  0  0  0  0  0  0  0  0  0  0
  1  2  4  0  0  0  0
  2  3  1  0  0  0  0
  2  4  4  0  0  0  0
  4  5  1  0  0  0  0
  4  6  4  0  0  0  0
  6  7  1  0  0  0  0
  6  8  4  0  0  0  0
  8  9  1  0  0  0  0
  8 10  4  0  0  0  0
 10  1  4  0  0  0  0
 10 11  1  0  0  0  0
  1 12  1  0  0  0  0
 12 13  4  0  0  0  0
 13 14  1  0  0  0  0
 13 15  4  0  0  0  0
 15 16  1  0  0  0  0
 15 17  4  0  0  0  0
 17 18  1  0  0  0  0
 17 19  4  0  0  0  0
 19 20  1  0  0  0  0
 19 21  4  0  0  0  0
 21 12  4  0  0  0  0
 21 22  1  0  0  0  0
M  END
> <CAS>
35693-92-6

> <NAME>
2,4,6-TRICHLOROBIPHENYL

> <preferred_name>
2,4,6-Trichlorobiphenyl

> <iupac>
1,3,5-trichloro-2-phenylbenzene

> <SMILES>
Clc1cc(Cl)c(-c2ccccc2)c(Cl)c1

> <Canonical_QSARr>
Clc1cc(Cl)c(-c2ccccc2)c(Cl)c1

> <InChI_Code_QSARr>
InChI=1S/C12H7Cl3/c13-9-6-10(14)12(11(15)7-9)8-4-2-1-3-5-8/h1-7H

> <InChI Key_QSARr>
MTLMVEWEYZFYTH-UHFFFAOYSA-N

> <Salt_Solvent>
?

> <WS Temperature>
25

> <WS Reference>
YALKOWSKY,SH & DANNENFELSER,RM (1992)

> <dsstox_substance_id>
DTXSID7073482

> <LogMolar>
-6.0095

$$$$
36330-85-5
  -INDIGO-01081615412D

 33 34  0  0  0  0  0  0  0  0999 V2000
    9.6001    0.0001    0.0000 C   0  0  0  0  0  0  0  0  0  0  0  0
    7.9999    0.0001    0.0000 C   0  0  0  0  0  0  0  0  0  0  0  0
    7.1999    1.3856    0.0000 H   0  0  0  0  0  0  0  0  0  0  0  0
    7.2001   -1.3856    0.0000 C   0  0  0  0  0  0  0  0  0  0  0  0
    5.6000   -1.3856    0.0000 C   0  0  0  0  0  0  0  0  0  0  0  0
    4.7999    0.0001    0.0000 C   0  0  0  0  0  0  0  0  0  0  0  0
    5.6000    1.3856    0.0000 H   0  0  0  0  0  0  0  0  0  0  0  0
    3.2001    0.0001    0.0000 C   0  0  0  0  0  0  0  0  0  0  0  0
    2.4000    1.3856    0.0000 H   0  0  0  0  0  0  0  0  0  0  0  0
    2.4000   -1.3856    0.0000 C   0  0  0  0  0  0  0  0  0  0  0  0
    0.8001   -1.3856    0.0000 C   0  0  0  0  0  0  0  0  0  0  0  0
    0.0001   -0.0001    0.0000 C   0  0  0  0  0  0  0  0  0  0  0  0
   -0.8000    1.3856    0.0000 C   0  0  0  0  0  0  0  0  0  0  0  0
   -1.6001    2.7712    0.0000 C   0  0  0  0  0  0  0  0  0  0  0  0
   -0.8000    4.1569    0.0000 O   0  0  0  0  0  0  0  0  0  0  0  0
   -3.1999    2.7712    0.0000 O   0  0  0  0  0  0  0  0  0  0  0  0
   -4.0000    4.1569    0.0000 H   0  0  0  0  0  0  0  0  0  0  0  0
   -2.1855    0.5857    0.0000 H   0  0  0  0  0  0  0  0  0  0  0  0
    0.5855    2.1856    0.0000 H   0  0  0  0  0  0  0  0  0  0  0  0
   -1.3857   -0.8000    0.0000 H   0  0  0  0  0  0  0  0  0  0  0  0
    1.3856    0.8001    0.0000 H   0  0  0  0  0  0  0  0  0  0  0  0
    0.0001   -2.7713    0.0000 O   0  0  0  0  0  0  0  0  0  0  0  0
    3.2001   -2.7712    0.0000 C   0  0  0  0  0  0  0  0  0  0  0  0
    2.4000   -4.1569    0.0000 H   0  0  0  0  0  0  0  0  0  0  0  0
    4.7999   -2.7712    0.0000 C   0  0  0  0  0  0  0  0  0  0  0  0
    5.6000   -4.1569    0.0000 H   0  0  0  0  0  0  0  0  0  0  0  0
    7.9999   -2.7712    0.0000 C   0  0  0  0  0  0  0  0  0  0  0  0
    7.2001   -4.1569    0.0000 H   0  0  0  0  0  0  0  0  0  0  0  0
    9.6001   -2.7712    0.0000 C   0  0  0  0  0  0  0  0  0  0  0  0
   10.4001   -4.1569    0.0000 H   0  0  0  0  0  0  0  0  0  0  0  0
   10.4001   -1.3856    0.0000 C   0  0  0  0  0  0  0  0  0  0  0  0
   12.0000   -1.3856    0.0000 H   0  0  0  0  0  0  0  0  0  0  0  0
   10.3999    1.3856    0.0000 H   0  0  0  0  0  0  0  0  0  0  0  0
  1  2  4  0  0  0  0
  2  3  1  0  0  0  0
  2  4  4  0  0  0  0
  4  5  1  0  0  0  0
  5  6  4  0  0  0  0
  6  7  1  0  0  0  0
  6  8  4  0  0  0  0
  8  9  1  0  0  0  0
  8 10  4  0  0  0  0
 10 11  1  0  0  0  0
 11 12  1  0  0  0  0
 12 13  1  0  0  0  0
 13 14  1  0  0  0  0
 14 15  2  0  0  0  0
 14 16  1  0  0  0  0
 16 17  1  0  0  0  0
 13 18  1  0  0  0  0
 13 19  1  0  0  0  0
 12 20  1  0  0  0  0
 12 21  1  0  0  0  0
 11 22  2  0  0  0  0
 10 23  4  0  0  0  0
 23 24  1  0  0  0  0
 23 25  4  0  0  0  0
 25  5  4  0  0  0  0
 25 26  1  0  0  0  0
  4 27  4  0  0  0  0
 27 28  1  0  0  0  0
 27 29  4  0  0  0  0
 29 30  1  0  0  0  0
 29 31  4  0  0  0  0
 31  1  4  0  0  0  0
 31 32  1  0  0  0  0
  1 33  1  0  0  0  0
M  END
> <CAS>
36330-85-5

> <NAME>
FENBUFEN

> <preferred_name>
Fenbufen

> <iupac>
4-(biphenyl-4-yl)-4-oxobutanoic acid

> <SMILES>
OC(=O)CCC(=O)c1ccc(cc1)-c1ccccc1

> <Canonical_QSARr>
OC(=O)CCC(=O)c1ccc(cc1)-c1ccccc1

> <InChI_Code_QSARr>
InChI=1S/C16H14O3/c17-15(10-11-16(18)19)14-8-6-13(7-9-14)12-4-2-1-3-5-12/h1-9H,10-11H2,(H,18,19)

> <InChI Key_QSARr>
ZPAKPRAICRBAOD-UHFFFAOYSA-N

> <Salt_Solvent>
?

> <WS Temperature>
25

> <WS Reference>
YALKOWSKY,SH & DANNENFELSER,RM (1992)

> <dsstox_substance_id>
DTXSID9023043

> <LogMolar>
-5.0609

$$$$
36566-80-0
  -INDIGO-01081615412D

 19 18  0  0  0  0  0  0  0  0999 V2000
   -0.0001   -1.6000    0.0000 C   0  0  0  0  0  0  0  0  0  0  0  0
   -0.0001    0.0000    0.0000 C   0  0  0  0  0  0  0  0  0  0  0  0
   -0.0001    1.6000    0.0000 C   0  0  0  0  0  0  0  0  0  0  0  0
   -0.0001    3.2000    0.0000 H   0  0  0  0  0  0  0  0  0  0  0  0
   -1.3857    2.4000    0.0000 H   0  0  0  0  0  0  0  0  0  0  0  0
    1.3857    2.4000    0.0000 H   0  0  0  0  0  0  0  0  0  0  0  0
    1.6000    0.0000    0.0000 C   0  0  0  0  0  0  0  0  0  0  0  0
    3.2001    0.0000    0.0000 C   0  0  0  0  0  0  0  0  0  0  0  0
    4.8000    0.0000    0.0000 C   0  0  0  0  0  0  0  0  0  0  0  0
    6.4001    0.0000    0.0000 C   0  0  0  0  0  0  0  0  0  0  0  0
    8.0000    0.0000    0.0000 H   0  0  0  0  0  0  0  0  0  0  0  0
    7.2000    1.3856    0.0000 H   0  0  0  0  0  0  0  0  0  0  0  0
    7.2000   -1.3856    0.0000 H   0  0  0  0  0  0  0  0  0  0  0  0
    4.8000   -1.6000    0.0000 H   0  0  0  0  0  0  0  0  0  0  0  0
    4.8000    1.6000    0.0000 H   0  0  0  0  0  0  0  0  0  0  0  0
   -1.6000    0.0000    0.0000 H   0  0  0  0  0  0  0  0  0  0  0  0
    0.0001   -3.2000    0.0000 H   0  0  0  0  0  0  0  0  0  0  0  0
   -1.3857   -2.4000    0.0000 H   0  0  0  0  0  0  0  0  0  0  0  0
    1.3857   -2.4000    0.0000 H   0  0  0  0  0  0  0  0  0  0  0  0
  1  2  1  0  0  0  0
  2  3  1  0  0  0  0
  3  4  1  0  0  0  0
  3  5  1  0  0  0  0
  3  6  1  0  0  0  0
  2  7  1  0  0  0  0
  7  8  3  0  0  0  0
  8  9  1  0  0  0  0
  9 10  1  0  0  0  0
 10 11  1  0  0  0  0
 10 12  1  0  0  0  0
 10 13  1  0  0  0  0
  9 14  1  0  0  0  0
  9 15  1  0  0  0  0
  2 16  1  0  0  0  0
  1 17  1  0  0  0  0
  1 18  1  0  0  0  0
  1 19  1  0  0  0  0
M  END
> <CAS>
36566-80-0

> <NAME>
2-Methyl-3-hexyne

> <preferred_name>


> <iupac>


> <SMILES>
CCC#CC(C)C

> <Canonical_QSARr>
CCC#CC(C)C

> <InChI_Code_QSARr>
InChI=1S/C7H12/c1-4-5-6-7(2)3/h7H,4H2,1-3H3

> <InChI Key_QSARr>
POBOUPFSQKXZFZ-UHFFFAOYSA-N

> <Salt_Solvent>
?

> <WS Temperature>
25

> <WS Reference>
YALKOWSKY,SH & DANNENFELSER,RM (1992)

> <dsstox_substance_id>


> <LogMolar>
-2.7448

$$$$
36756-79-3
  -INDIGO-01081615412D

 44 44  0  0  0  0  0  0  0  0999 V2000
   -2.4000   -1.3856    0.0000 C   0  0  0  0  0  0  0  0  0  0  0  0
   -0.8001   -1.3856    0.0000 N   0  0  0  0  0  0  0  0  0  0  0  0
   -0.0000   -2.7712    0.0000 C   0  0  0  0  0  0  0  0  0  0  0  0
   -1.3856   -3.5713    0.0000 C   0  0  0  0  0  0  0  0  0  0  0  0
   -2.7712   -4.3712    0.0000 H   0  0  0  0  0  0  0  0  0  0  0  0
   -1.3856   -5.1713    0.0000 H   0  0  0  0  0  0  0  0  0  0  0  0
   -0.0000   -4.3712    0.0000 H   0  0  0  0  0  0  0  0  0  0  0  0
    1.0284   -3.9970    0.0000 C   0  0  0  0  0  0  0  0  0  0  0  0
    2.0569   -5.2226    0.0000 C   0  0  0  0  0  0  0  0  0  0  0  0
    3.0853   -6.4482    0.0000 H   0  0  0  0  0  0  0  0  0  0  0  0
    1.5096   -6.7261    0.0000 H   0  0  0  0  0  0  0  0  0  0  0  0
    3.6326   -4.9447    0.0000 H   0  0  0  0  0  0  0  0  0  0  0  0
    0.4812   -5.5005    0.0000 H   0  0  0  0  0  0  0  0  0  0  0  0
    2.2540   -2.9684    0.0000 H   0  0  0  0  0  0  0  0  0  0  0  0
    1.3856   -1.9713    0.0000 H   0  0  0  0  0  0  0  0  0  0  0  0
   -0.0000   -0.0001    0.0000 C   0  0  0  0  0  0  0  0  0  0  0  0
   -1.3856    0.8000    0.0000 C   0  0  0  0  0  0  0  0  0  0  0  0
   -2.7712    1.5999    0.0000 H   0  0  0  0  0  0  0  0  0  0  0  0
   -1.3856    2.4000    0.0000 H   0  0  0  0  0  0  0  0  0  0  0  0
   -0.0000    1.5999    0.0000 H   0  0  0  0  0  0  0  0  0  0  0  0
    1.0284    1.2257    0.0000 C   0  0  0  0  0  0  0  0  0  0  0  0
    2.0569    2.4513    0.0000 C   0  0  0  0  0  0  0  0  0  0  0  0
    3.0853    3.6770    0.0000 H   0  0  0  0  0  0  0  0  0  0  0  0
    3.6326    2.1735    0.0000 H   0  0  0  0  0  0  0  0  0  0  0  0
    1.5096    3.9549    0.0000 H   0  0  0  0  0  0  0  0  0  0  0  0
    2.2540    0.1972    0.0000 H   0  0  0  0  0  0  0  0  0  0  0  0
    0.2284    2.6112    0.0000 H   0  0  0  0  0  0  0  0  0  0  0  0
    1.3856   -0.8000    0.0000 H   0  0  0  0  0  0  0  0  0  0  0  0
   -3.2001   -0.0001    0.0000 S   0  0  0  0  0  0  0  0  0  0  0  0
   -4.8000   -0.0001    0.0000 C   0  0  0  0  0  0  0  0  0  0  0  0
   -6.4000   -0.0001    0.0000 C   0  0  0  0  0  0  0  0  0  0  0  0
   -7.2000    1.3856    0.0000 C   0  0  0  0  0  0  0  0  0  0  0  0
   -6.4000    2.7713    0.0000 H   0  0  0  0  0  0  0  0  0  0  0  0
   -8.8000    1.3856    0.0000 C   0  0  0  0  0  0  0  0  0  0  0  0
   -9.6001    2.7713    0.0000 H   0  0  0  0  0  0  0  0  0  0  0  0
   -9.6001   -0.0001    0.0000 C   0  0  0  0  0  0  0  0  0  0  0  0
  -11.2000   -0.0001    0.0000 H   0  0  0  0  0  0  0  0  0  0  0  0
   -8.8000   -1.3857    0.0000 C   0  0  0  0  0  0  0  0  0  0  0  0
   -9.6001   -2.7712    0.0000 H   0  0  0  0  0  0  0  0  0  0  0  0
   -7.2000   -1.3857    0.0000 C   0  0  0  0  0  0  0  0  0  0  0  0
   -6.4000   -2.7712    0.0000 H   0  0  0  0  0  0  0  0  0  0  0  0
   -4.8000   -1.6000    0.0000 H   0  0  0  0  0  0  0  0  0  0  0  0
   -4.8000    1.5999    0.0000 H   0  0  0  0  0  0  0  0  0  0  0  0
   -3.2001   -2.7712    0.0000 O   0  0  0  0  0  0  0  0  0  0  0  0
  1  2  1  0  0  0  0
  2  3  1  0  0  0  0
  3  4  1  0  0  0  0
  4  5  1  0  0  0  0
  4  6  1  0  0  0  0
  4  7  1  0  0  0  0
  3  8  1  0  0  0  0
  8  9  1  0  0  0  0
  9 10  1  0  0  0  0
  9 11  1  0  0  0  0
  9 12  1  0  0  0  0
  8 13  1  0  0  0  0
  8 14  1  0  0  0  0
  3 15  1  0  0  0  0
  2 16  1  0  0  0  0
 16 17  1  0  0  0  0
 17 18  1  0  0  0  0
 17 19  1  0  0  0  0
 17 20  1  0  0  0  0
 16 21  1  0  0  0  0
 21 22  1  0  0  0  0
 22 23  1  0  0  0  0
 22 24  1  0  0  0  0
 22 25  1  0  0  0  0
 21 26  1  0  0  0  0
 21 27  1  0  0  0  0
 16 28  1  0  0  0  0
  1 29  1  0  0  0  0
 29 30  1  0  0  0  0
 30 31  1  0  0  0  0
 31 32  4  0  0  0  0
 32 33  1  0  0  0  0
 32 34  4  0  0  0  0
 34 35  1  0  0  0  0
 34 36  4  0  0  0  0
 36 37  1  0  0  0  0
 36 38  4  0  0  0  0
 38 39  1  0  0  0  0
 38 40  4  0  0  0  0
 40 31  4  0  0  0  0
 40 41  1  0  0  0  0
 30 42  1  0  0  0  0
 30 43  1  0  0  0  0
  1 44  2  0  0  0  0
M  END
> <CAS>
36756-79-3

> <NAME>
TIOCARBAZIL

> <preferred_name>
Tiocarbazil

> <iupac>
S-benzyl dibutan-2-ylcarbamothioate

> <SMILES>
CC(CC)N(C(C)CC)C(=O)SCc1ccccc1

> <Canonical_QSARr>
CC(CC)N(C(C)CC)C(=O)SCc1ccccc1

> <InChI_Code_QSARr>
InChI=1S/C16H25NOS/c1-5-13(3)17(14(4)6-2)16(18)19-12-15-10-8-7-9-11-15/h7-11,13-14H,5-6,12H2,1-4H3

> <InChI Key_QSARr>
PHSUVQBHRAWOQD-UHFFFAOYSA-N

> <Salt_Solvent>
?

> <WS Temperature>
30

> <WS Reference>
SHIU,WY ET AL. (1990)

> <dsstox_substance_id>
DTXSID6034425

> <LogMolar>
-5.0484

$$$$
37139-21-2
  -INDIGO-01081615412D

 44 44  0  0  0  0  0  0  0  0999 V2000
   -8.0000    0.0000    0.0000 O   0  0  0  0  0  0  0  0  0  0  0  0
   -8.8002    1.3857    0.0000 C   0  0  0  0  0  0  0  0  0  0  0  0
  -10.4002    1.3857    0.0000 C   0  0  0  0  0  0  0  0  0  0  0  0
  -11.2000    2.7713    0.0000 C   0  0  0  0  0  0  0  0  0  0  0  0
  -10.4002    4.1569    0.0000 H   0  0  0  0  0  0  0  0  0  0  0  0
  -12.8000    2.7713    0.0000 C   0  0  0  0  0  0  0  0  0  0  0  0
  -13.6002    4.1569    0.0000 H   0  0  0  0  0  0  0  0  0  0  0  0
  -13.6002    1.3857    0.0000 C   0  0  0  0  0  0  0  0  0  0  0  0
  -15.1998    1.3857    0.0000 N   0  0  0  0  0  0  0  0  0  0  0  0
  -16.0000    2.7713    0.0000 H   0  0  0  0  0  0  0  0  0  0  0  0
  -16.0000    0.0000    0.0000 H   0  0  0  0  0  0  0  0  0  0  0  0
  -12.8000    0.0000    0.0000 C   0  0  0  0  0  0  0  0  0  0  0  0
  -13.6002   -1.3857    0.0000 H   0  0  0  0  0  0  0  0  0  0  0  0
  -11.2000    0.0000    0.0000 C   0  0  0  0  0  0  0  0  0  0  0  0
  -10.4002   -1.3857    0.0000 H   0  0  0  0  0  0  0  0  0  0  0  0
   -8.0000    2.7713    0.0000 O   0  0  0  0  0  0  0  0  0  0  0  0
   -6.4000    0.0000    0.0000 C   0  0  0  0  0  0  0  0  0  0  0  0
   -4.8000    0.0000    0.0000 C   0  0  0  0  0  0  0  0  0  0  0  0
   -3.2000    0.0000    0.0000 C   0  0  0  0  0  0  0  0  0  0  0  0
   -1.6000    0.0000    0.0000 C   0  0  0  0  0  0  0  0  0  0  0  0
    0.0000    0.0000    0.0000 C   0  0  0  0  0  0  0  0  0  0  0  0
    1.6000    0.0000    0.0000 C   0  0  0  0  0  0  0  0  0  0  0  0
    3.2000    0.0000    0.0000 C   0  0  0  0  0  0  0  0  0  0  0  0
    4.8000    0.0000    0.0000 C   0  0  0  0  0  0  0  0  0  0  0  0
    6.4000    0.0000    0.0000 C   0  0  0  0  0  0  0  0  0  0  0  0
    8.0000    0.0000    0.0000 H   0  0  0  0  0  0  0  0  0  0  0  0
    7.2002   -1.3857    0.0000 H   0  0  0  0  0  0  0  0  0  0  0  0
    7.2002    1.3857    0.0000 H   0  0  0  0  0  0  0  0  0  0  0  0
    4.8000   -1.6000    0.0000 H   0  0  0  0  0  0  0  0  0  0  0  0
    4.8000    1.6000    0.0000 H   0  0  0  0  0  0  0  0  0  0  0  0
    3.2000   -1.6000    0.0000 H   0  0  0  0  0  0  0  0  0  0  0  0
    3.2000    1.6000    0.0000 H   0  0  0  0  0  0  0  0  0  0  0  0
    1.6000   -1.6000    0.0000 H   0  0  0  0  0  0  0  0  0  0  0  0
    1.6000    1.6000    0.0000 H   0  0  0  0  0  0  0  0  0  0  0  0
    0.0000   -1.6000    0.0000 H   0  0  0  0  0  0  0  0  0  0  0  0
    0.0000    1.6000    0.0000 H   0  0  0  0  0  0  0  0  0  0  0  0
   -1.6000   -1.6000    0.0000 H   0  0  0  0  0  0  0  0  0  0  0  0
   -1.6000    1.6000    0.0000 H   0  0  0  0  0  0  0  0  0  0  0  0
   -3.2000   -1.6000    0.0000 H   0  0  0  0  0  0  0  0  0  0  0  0
   -3.2000    1.6000    0.0000 H   0  0  0  0  0  0  0  0  0  0  0  0
   -4.8000   -1.6000    0.0000 H   0  0  0  0  0  0  0  0  0  0  0  0
   -4.8000    1.6000    0.0000 H   0  0  0  0  0  0  0  0  0  0  0  0
   -6.4000   -1.6000    0.0000 H   0  0  0  0  0  0  0  0  0  0  0  0
   -6.4000    1.6000    0.0000 H   0  0  0  0  0  0  0  0  0  0  0  0
  1  2  1  0  0  0  0
  2  3  1  0  0  0  0
  3  4  4  0  0  0  0
  4  5  1  0  0  0  0
  4  6  4  0  0  0  0
  6  7  1  0  0  0  0
  6  8  4  0  0  0  0
  8  9  1  0  0  0  0
  9 10  1  0  0  0  0
  9 11  1  0  0  0  0
  8 12  4  0  0  0  0
 12 13  1  0  0  0  0
 12 14  4  0  0  0  0
 14  3  4  0  0  0  0
 14 15  1  0  0  0  0
  2 16  2  0  0  0  0
  1 17  1  0  0  0  0
 17 18  1  0  0  0  0
 18 19  1  0  0  0  0
 19 20  1  0  0  0  0
 20 21  1  0  0  0  0
 21 22  1  0  0  0  0
 22 23  1  0  0  0  0
 23 24  1  0  0  0  0
 24 25  1  0  0  0  0
 25 26  1  0  0  0  0
 25 27  1  0  0  0  0
 25 28  1  0  0  0  0
 24 29  1  0  0  0  0
 24 30  1  0  0  0  0
 23 31  1  0  0  0  0
 23 32  1  0  0  0  0
 22 33  1  0  0  0  0
 22 34  1  0  0  0  0
 21 35  1  0  0  0  0
 21 36  1  0  0  0  0
 20 37  1  0  0  0  0
 20 38  1  0  0  0  0
 19 39  1  0  0  0  0
 19 40  1  0  0  0  0
 18 41  1  0  0  0  0
 18 42  1  0  0  0  0
 17 43  1  0  0  0  0
 17 44  1  0  0  0  0
M  END
> <CAS>
37139-21-2

> <NAME>
BENZOIC ACID, 4-AMINO-, NONYL ESTER

> <preferred_name>
Benzoic acid, 4-amino-, nonyl ester

> <iupac>


> <SMILES>
CCCCCCCCCOC(=O)c1ccc(N)cc1

> <Canonical_QSARr>
CCCCCCCCCOC(=O)c1ccc(N)cc1

> <InChI_Code_QSARr>
InChI=1S/C16H25NO2/c1-2-3-4-5-6-7-8-13-19-16(18)14-9-11-15(17)12-10-14/h9-12H,2-8,13,17H2,1H3

> <InChI Key_QSARr>
KKGIDNSPWHBLLE-UHFFFAOYSA-N

> <Salt_Solvent>
?

> <WS Temperature>


> <WS Reference>
YALKOWSKY,SH & VALVANI,SC (1980)

> <dsstox_substance_id>
DTXSID90190626

> <LogMolar>
-6.0005

$$$$
37517-28-5
  -INDIGO-01081615412D

 83 85  0  0  0  0  0  0  0  0999 V2000
    9.3953    4.3120    0.0000 N   0  0  0  0  0  0  0  0  0  0  0  0
    7.8920    3.7646    0.0000 C   0  0  0  0  0  0  0  0  0  0  0  0
    6.3884    3.2173    0.0000 C   0  0  0  0  0  0  0  0  0  0  0  0
    4.8848    2.6702    0.0000 C   0  0  0  0  0  0  0  0  0  0  0  0
    3.3813    2.1229    0.0000 C   0  0  0  0  0  0  0  0  0  0  0  0
    3.1035    0.5473    0.0000 N   0  0  0  0  0  0  0  0  0  0  0  0
    1.6000   -0.0001    0.0000 C   0  0  0  0  0  0  0  0  0  0  0  0
   -0.0001   -0.0001    0.0000 C   0  0  0  0  0  0  0  0  0  0  0  0
   -1.5036    0.5473    0.0000 O   0  0  0  0  0  0  0  0  0  0  0  0
   -2.0506    2.0508    0.0000 C   0  0  0  0  0  0  0  0  0  0  0  0
   -2.0506    3.6507    0.0000 C   0  0  0  0  0  0  0  0  0  0  0  0
   -1.5036    5.1542    0.0000 O   0  0  0  0  0  0  0  0  0  0  0  0
    0.0721    5.4321    0.0000 H   0  0  0  0  0  0  0  0  0  0  0  0
   -0.4752    3.3728    0.0000 H   0  0  0  0  0  0  0  0  0  0  0  0
   -3.4364    4.4508    0.0000 C   0  0  0  0  0  0  0  0  0  0  0  0
   -3.9837    5.9543    0.0000 N   0  0  0  0  0  0  0  0  0  0  0  0
   -2.9552    7.1799    0.0000 H   0  0  0  0  0  0  0  0  0  0  0  0
   -5.5594    6.2319    0.0000 H   0  0  0  0  0  0  0  0  0  0  0  0
   -2.4080    5.6764    0.0000 H   0  0  0  0  0  0  0  0  0  0  0  0
   -4.8220    3.6507    0.0000 C   0  0  0  0  0  0  0  0  0  0  0  0
   -6.3977    3.3728    0.0000 O   0  0  0  0  0  0  0  0  0  0  0  0
   -7.4261    4.5987    0.0000 H   0  0  0  0  0  0  0  0  0  0  0  0
   -5.3692    5.1542    0.0000 H   0  0  0  0  0  0  0  0  0  0  0  0
   -4.8220    2.0508    0.0000 C   0  0  0  0  0  0  0  0  0  0  0  0
   -5.3692    0.5473    0.0000 C   0  0  0  0  0  0  0  0  0  0  0  0
   -5.9165   -0.9562    0.0000 O   0  0  0  0  0  0  0  0  0  0  0  0
   -7.4922   -1.2342    0.0000 H   0  0  0  0  0  0  0  0  0  0  0  0
   -6.8728    1.0944    0.0000 H   0  0  0  0  0  0  0  0  0  0  0  0
   -3.8657   -0.0001    0.0000 H   0  0  0  0  0  0  0  0  0  0  0  0
   -6.3977    2.3285    0.0000 H   0  0  0  0  0  0  0  0  0  0  0  0
   -3.4364    1.2507    0.0000 O   0  0  0  0  0  0  0  0  0  0  0  0
   -0.4752    2.3285    0.0000 H   0  0  0  0  0  0  0  0  0  0  0  0
    0.2777    1.5758    0.0000 H   0  0  0  0  0  0  0  0  0  0  0  0
   -0.7999   -1.3856    0.0000 C   0  0  0  0  0  0  0  0  0  0  0  0
   -2.0257   -2.4141    0.0000 O   0  0  0  0  0  0  0  0  0  0  0  0
   -3.5293   -1.8667    0.0000 H   0  0  0  0  0  0  0  0  0  0  0  0
   -2.0257   -0.3570    0.0000 H   0  0  0  0  0  0  0  0  0  0  0  0
   -0.0001   -2.7714    0.0000 C   0  0  0  0  0  0  0  0  0  0  0  0
    0.2777   -4.3469    0.0000 O   0  0  0  0  0  0  0  0  0  0  0  0
   -0.5222   -5.7327    0.0000 C   0  0  0  0  0  0  0  0  0  0  0  0
   -1.7480   -6.7609    0.0000 C   0  0  0  0  0  0  0  0  0  0  0  0
   -3.2512   -7.3083    0.0000 O   0  0  0  0  0  0  0  0  0  0  0  0
   -4.4770   -6.2798    0.0000 H   0  0  0  0  0  0  0  0  0  0  0  0
   -2.5478   -5.3754    0.0000 H   0  0  0  0  0  0  0  0  0  0  0  0
   -1.4699   -8.3368    0.0000 C   0  0  0  0  0  0  0  0  0  0  0  0
   -3.0699   -8.3368    0.0000 O   0  0  0  0  0  0  0  0  0  0  0  0
   -3.8701   -9.7223    0.0000 H   0  0  0  0  0  0  0  0  0  0  0  0
   -1.7480   -9.9124    0.0000 H   0  0  0  0  0  0  0  0  0  0  0  0
    0.0337   -8.8839    0.0000 C   0  0  0  0  0  0  0  0  0  0  0  0
   -0.7665  -10.2697    0.0000 O   0  0  0  0  0  0  0  0  0  0  0  0
    0.0337  -11.6552    0.0000 H   0  0  0  0  0  0  0  0  0  0  0  0
    0.4101   -9.5651    0.0000 H   0  0  0  0  0  0  0  0  0  0  0  0
    1.2592   -7.8556    0.0000 C   0  0  0  0  0  0  0  0  0  0  0  0
    2.0593   -9.2412    0.0000 C   0  0  0  0  0  0  0  0  0  0  0  0
    2.8592  -10.6270    0.0000 N   0  0  0  0  0  0  0  0  0  0  0  0
    2.0593  -12.0125    0.0000 H   0  0  0  0  0  0  0  0  0  0  0  0
    4.4592  -10.6270    0.0000 H   0  0  0  0  0  0  0  0  0  0  0  0
    1.4192   -9.6840    0.0000 H   0  0  0  0  0  0  0  0  0  0  0  0
    3.4449   -8.4411    0.0000 H   0  0  0  0  0  0  0  0  0  0  0  0
    2.7627   -7.3083    0.0000 H   0  0  0  0  0  0  0  0  0  0  0  0
    0.9814   -6.2798    0.0000 O   0  0  0  0  0  0  0  0  0  0  0  0
   -1.7480   -4.7042    0.0000 H   0  0  0  0  0  0  0  0  0  0  0  0
   -1.5036   -3.3184    0.0000 H   0  0  0  0  0  0  0  0  0  0  0  0
    1.6000   -2.7714    0.0000 C   0  0  0  0  0  0  0  0  0  0  0  0
    3.1035   -3.3184    0.0000 N   0  0  0  0  0  0  0  0  0  0  0  0
    3.3813   -4.8943    0.0000 H   0  0  0  0  0  0  0  0  0  0  0  0
    4.4891   -2.5186    0.0000 H   0  0  0  0  0  0  0  0  0  0  0  0
    1.3222   -4.3469    0.0000 H   0  0  0  0  0  0  0  0  0  0  0  0
    2.4001   -1.3856    0.0000 C   0  0  0  0  0  0  0  0  0  0  0  0
    3.6256   -2.4141    0.0000 H   0  0  0  0  0  0  0  0  0  0  0  0
    3.6256   -0.3570    0.0000 H   0  0  0  0  0  0  0  0  0  0  0  0
    1.3222    1.5758    0.0000 H   0  0  0  0  0  0  0  0  0  0  0  0
    4.4891   -0.2528    0.0000 H   0  0  0  0  0  0  0  0  0  0  0  0
    2.1558    3.1514    0.0000 O   0  0  0  0  0  0  0  0  0  0  0  0
    4.3376    4.1737    0.0000 O   0  0  0  0  0  0  0  0  0  0  0  0
    2.7619    4.4514    0.0000 H   0  0  0  0  0  0  0  0  0  0  0  0
    5.4321    1.1667    0.0000 H   0  0  0  0  0  0  0  0  0  0  0  0
    5.8412    4.7208    0.0000 H   0  0  0  0  0  0  0  0  0  0  0  0
    6.9357    1.7137    0.0000 H   0  0  0  0  0  0  0  0  0  0  0  0
    7.3447    5.2681    0.0000 H   0  0  0  0  0  0  0  0  0  0  0  0
    8.4392    2.2611    0.0000 H   0  0  0  0  0  0  0  0  0  0  0  0
    9.6733    5.8875    0.0000 H   0  0  0  0  0  0  0  0  0  0  0  0
   10.6211    3.2835    0.0000 H   0  0  0  0  0  0  0  0  0  0  0  0
  1  2  1  0  0  0  0
  2  3  1  0  0  0  0
  3  4  1  0  0  0  0
  4  5  1  0  0  0  0
  5  6  1  0  0  0  0
  6  7  1  0  0  0  0
  7  8  1  0  0  0  0
  8  9  1  0  0  0  0
  9 10  1  0  0  0  0
 10 11  1  0  0  0  0
 11 12  1  0  0  0  0
 12 13  1  0  0  0  0
 11 14  1  0  0  0  0
 11 15  1  0  0  0  0
 15 16  1  0  0  0  0
 16 17  1  0  0  0  0
 16 18  1  0  0  0  0
 15 19  1  0  0  0  0
 15 20  1  0  0  0  0
 20 21  1  0  0  0  0
 21 22  1  0  0  0  0
 20 23  1  0  0  0  0
 20 24  1  0  0  0  0
 24 25  1  0  0  0  0
 25 26  1  0  0  0  0
 26 27  1  0  0  0  0
 25 28  1  0  0  0  0
 25 29  1  0  0  0  0
 24 30  1  0  0  0  0
 24 31  1  0  0  0  0
 31 10  1  0  0  0  0
 10 32  1  0  0  0  0
  8 33  1  0  0  0  0
  8 34  1  0  0  0  0
 34 35  1  0  0  0  0
 35 36  1  0  0  0  0
 34 37  1  0  0  0  0
 34 38  1  0  0  0  0
 38 39  1  0  0  0  0
 39 40  1  0  0  0  0
 40 41  1  0  0  0  0
 41 42  1  0  0  0  0
 42 43  1  0  0  0  0
 41 44  1  0  0  0  0
 41 45  1  0  0  0  0
 45 46  1  0  0  0  0
 46 47  1  0  0  0  0
 45 48  1  0  0  0  0
 45 49  1  0  0  0  0
 49 50  1  0  0  0  0
 50 51  1  0  0  0  0
 49 52  1  0  0  0  0
 49 53  1  0  0  0  0
 53 54  1  0  0  0  0
 54 55  1  0  0  0  0
 55 56  1  0  0  0  0
 55 57  1  0  0  0  0
 54 58  1  0  0  0  0
 54 59  1  0  0  0  0
 53 60  1  0  0  0  0
 53 61  1  0  0  0  0
 61 40  1  0  0  0  0
 40 62  1  0  0  0  0
 38 63  1  0  0  0  0
 38 64  1  0  0  0  0
 64 65  1  0  0  0  0
 65 66  1  0  0  0  0
 65 67  1  0  0  0  0
 64 68  1  0  0  0  0
 64 69  1  0  0  0  0
 69  7  1  0  0  0  0
 69 70  1  0  0  0  0
 69 71  1  0  0  0  0
  7 72  1  0  0  0  0
  6 73  1  0  0  0  0
  5 74  2  0  0  0  0
  4 75  1  0  0  0  0
 75 76  1  0  0  0  0
  4 77  1  0  0  0  0
  3 78  1  0  0  0  0
  3 79  1  0  0  0  0
  2 80  1  0  0  0  0
  2 81  1  0  0  0  0
  1 82  1  0  0  0  0
  1 83  1  0  0  0  0
M  END
> <CAS>
37517-28-5

> <NAME>
AMIKACIN

> <preferred_name>
Amikacin

> <iupac>
C22H43N5O13

> <SMILES>
N[C@H]1C[C@@H](NC(=O)[C@@H](O)CCN)[C@H](O[C@H]2O[C@H](CO)[C@@H](O)[C@H](N)[C@H]2O)[C@@H](O)[C@@H]1O[C@H]1O[C@H](CN)[C@@H](O)[C@H](O)[C@H]1O

> <Canonical_QSARr>
NC1CC(NC(=O)C(O)CCN)C(OC2OC(CO)C(O)C(N)C2O)C(O)C1OC1OC(CN)C(O)C(O)C1O

> <InChI_Code_QSARr>
InChI=1S/C22H43N5O13/c23-2-1-8(29)20(36)27-7-3-6(25)18(39-22-16(34)15(33)13(31)9(4-24)37-22)17(35)19(7)40-21-14(32)11(26)12(30)10(5-28)38-21/h6-19,21-22,28-35H,1-5,23-26H2,(H,27,36)

> <InChI Key_QSARr>
LKCWBDHBTVXHDL-UHFFFAOYSA-N

> <Salt_Solvent>
?

> <WS Temperature>
25

> <WS Reference>
YALKOWSKY,SH & DANNENFELSER,RM (1992)

> <dsstox_substance_id>
DTXSID3022586

> <LogMolar>
-0.5004

$$$$
37680-66-3
  -INDIGO-01081615412D

 22 23  0  0  0  0  0  0  0  0999 V2000
    0.0001    0.0000    0.0000 C   0  0  0  0  0  0  0  0  0  0  0  0
    0.8001   -1.3856    0.0000 C   0  0  0  0  0  0  0  0  0  0  0  0
    0.0001   -2.7713    0.0000 H   0  0  0  0  0  0  0  0  0  0  0  0
    2.4000   -1.3856    0.0000 C   0  0  0  0  0  0  0  0  0  0  0  0
    3.2000   -2.7713    0.0000 H   0  0  0  0  0  0  0  0  0  0  0  0
    3.2000    0.0000    0.0000 C   0  0  0  0  0  0  0  0  0  0  0  0
    4.8000    0.0000    0.0000 Cl  0  0  0  0  0  0  0  0  0  0  0  0
    2.4000    1.3856    0.0000 C   0  0  0  0  0  0  0  0  0  0  0  0
    3.2000    2.7713    0.0000 H   0  0  0  0  0  0  0  0  0  0  0  0
    0.8001    1.3856    0.0000 C   0  0  0  0  0  0  0  0  0  0  0  0
    0.0001    2.7713    0.0000 Cl  0  0  0  0  0  0  0  0  0  0  0  0
   -1.6001   -0.0000    0.0000 C   0  0  0  0  0  0  0  0  0  0  0  0
   -2.4001    1.3856    0.0000 C   0  0  0  0  0  0  0  0  0  0  0  0
   -1.6001    2.7713    0.0000 H   0  0  0  0  0  0  0  0  0  0  0  0
   -4.0000    1.3856    0.0000 C   0  0  0  0  0  0  0  0  0  0  0  0
   -4.8000    2.7713    0.0000 H   0  0  0  0  0  0  0  0  0  0  0  0
   -4.8000   -0.0000    0.0000 C   0  0  0  0  0  0  0  0  0  0  0  0
   -6.4000   -0.0000    0.0000 H   0  0  0  0  0  0  0  0  0  0  0  0
   -4.0000   -1.3856    0.0000 C   0  0  0  0  0  0  0  0  0  0  0  0
   -4.8000   -2.7713    0.0000 H   0  0  0  0  0  0  0  0  0  0  0  0
   -2.4001   -1.3856    0.0000 C   0  0  0  0  0  0  0  0  0  0  0  0
   -1.6001   -2.7713    0.0000 Cl  0  0  0  0  0  0  0  0  0  0  0  0
  1  2  4  0  0  0  0
  2  3  1  0  0  0  0
  2  4  4  0  0  0  0
  4  5  1  0  0  0  0
  4  6  4  0  0  0  0
  6  7  1  0  0  0  0
  6  8  4  0  0  0  0
  8  9  1  0  0  0  0
  8 10  4  0  0  0  0
 10  1  4  0  0  0  0
 10 11  1  0  0  0  0
  1 12  1  0  0  0  0
 12 13  4  0  0  0  0
 13 14  1  0  0  0  0
 13 15  4  0  0  0  0
 15 16  1  0  0  0  0
 15 17  4  0  0  0  0
 17 18  1  0  0  0  0
 17 19  4  0  0  0  0
 19 20  1  0  0  0  0
 19 21  4  0  0  0  0
 21 12  4  0  0  0  0
 21 22  1  0  0  0  0
M  END
> <CAS>
37680-66-3

> <NAME>
2,2',4-TRICHLOROBIPHENYL

> <preferred_name>
2,2',4-Trichlorobiphenyl

> <iupac>
2,4-dichloro-1-(2-chlorophenyl)benzene

> <SMILES>
Clc1cc(Cl)c(cc1)-c1ccccc1Cl

> <Canonical_QSARr>
Clc1cc(Cl)c(cc1)-c1ccccc1Cl

> <InChI_Code_QSARr>
InChI=1S/C12H7Cl3/c13-8-5-6-10(12(15)7-8)9-3-1-2-4-11(9)14/h1-7H

> <InChI Key_QSARr>
YKKYCYQDUUXNLN-UHFFFAOYSA-N

> <Salt_Solvent>
?

> <WS Temperature>
25

> <WS Reference>
PATIL,GS (1991)

> <dsstox_substance_id>
DTXSID1073492

> <LogMolar>
-6.4902

$$$$
37809-02-2
  -INDIGO-01081615412D

 13 12  0  0  0  0  0  0  0  0999 V2000
    2.4000    1.3856    0.0000 Cl  0  0  0  0  0  0  0  0  0  0  0  0
    1.6000    0.0000    0.0000 C   0  0  0  0  0  0  0  0  0  0  0  0
    0.0000    0.0000    0.0000 C   0  0  0  0  0  0  0  0  0  0  0  0
   -1.6000    0.0000    0.0000 C   0  0  0  0  0  0  0  0  0  0  0  0
   -3.2000    0.0000    0.0000 H   0  0  0  0  0  0  0  0  0  0  0  0
   -2.4000   -1.3856    0.0000 H   0  0  0  0  0  0  0  0  0  0  0  0
   -2.4000    1.3856    0.0000 H   0  0  0  0  0  0  0  0  0  0  0  0
    0.0000    1.6000    0.0000 N   0  0  0  0  0  0  0  0  0  0  0  0
    1.3856    2.4000    0.0000 O   0  0  0  0  0  0  0  0  0  0  0  0
   -1.3856    2.4000    0.0000 O   0  0  0  0  0  0  0  0  0  0  0  0
    0.0000   -1.6000    0.0000 H   0  0  0  0  0  0  0  0  0  0  0  0
    3.2000    0.0000    0.0000 H   0  0  0  0  0  0  0  0  0  0  0  0
    2.4000   -1.3856    0.0000 H   0  0  0  0  0  0  0  0  0  0  0  0
  1  2  1  0  0  0  0
  2  3  1  0  0  0  0
  3  4  1  0  0  0  0
  4  5  1  0  0  0  0
  4  6  1  0  0  0  0
  4  7  1  0  0  0  0
  3  8  1  0  0  0  0
  8  9  2  0  0  0  0
  8 10  1  0  0  0  0
  3 11  1  0  0  0  0
  2 12  1  0  0  0  0
  2 13  1  0  0  0  0
M  CHG  2   8   1  10  -1
M  END
> <CAS>
37809-02-2

> <NAME>
1-Chloro-2-nitropropane

> <preferred_name>
Propane, chloronitro-

> <iupac>
(2S)-1-chloro-2-nitropropane

> <SMILES>
C[C@@H](CCl)[N+]([O-])=O

> <Canonical_QSARr>
CC(CCl)[N+]([O-])=O

> <InChI_Code_QSARr>
InChI=1S/C3H6ClNO2/c1-3(2-4)5(6)7/h3H,2H2,1H3

> <InChI Key_QSARr>
FPJNQQRSBJPGHM-UHFFFAOYSA-N

> <Salt_Solvent>
?

> <WS Temperature>
20

> <WS Reference>
YALKOWSKY,SH & DANNENFELSER,RM (1992)

> <dsstox_substance_id>
DTXSID40191249

> <LogMolar>
-1.1887

$$$$
38026-46-9
  -INDIGO-01081615412D

 21 21  0  0  0  0  0  0  0  0999 V2000
    4.8000   -0.0000    0.0000 S   0  0  0  0  0  0  0  0  0  0  0  0
    3.2000   -0.0000    0.0000 C   0  0  0  0  0  0  0  0  0  0  0  0
    2.4000    1.3856    0.0000 N   0  0  0  0  0  0  0  0  0  0  0  0
    3.2000    2.7713    0.0000 H   0  0  0  0  0  0  0  0  0  0  0  0
    0.8000    1.3856    0.0000 C   0  0  0  0  0  0  0  0  0  0  0  0
    0.0000    2.7713    0.0000 H   0  0  0  0  0  0  0  0  0  0  0  0
    0.0000   -0.0000    0.0000 C   0  0  0  0  0  0  0  0  0  0  0  0
   -1.6000   -0.0000    0.0000 C   0  0  0  0  0  0  0  0  0  0  0  0
   -2.4000   -1.3856    0.0000 O   0  0  0  0  0  0  0  0  0  0  0  0
   -2.4000    1.3856    0.0000 O   0  0  0  0  0  0  0  0  0  0  0  0
   -4.0000    1.3856    0.0000 C   0  0  0  0  0  0  0  0  0  0  0  0
   -5.6000    1.3856    0.0000 C   0  0  0  0  0  0  0  0  0  0  0  0
   -7.2000    1.3856    0.0000 H   0  0  0  0  0  0  0  0  0  0  0  0
   -6.4000    2.7713    0.0000 H   0  0  0  0  0  0  0  0  0  0  0  0
   -6.4000   -0.0000    0.0000 H   0  0  0  0  0  0  0  0  0  0  0  0
   -4.0000    2.9856    0.0000 H   0  0  0  0  0  0  0  0  0  0  0  0
   -4.0000   -0.2144    0.0000 H   0  0  0  0  0  0  0  0  0  0  0  0
    0.8000   -1.3856    0.0000 C   0  0  0  0  0  0  0  0  0  0  0  0
    0.0000   -2.7713    0.0000 O   0  0  0  0  0  0  0  0  0  0  0  0
    2.4000   -1.3856    0.0000 N   0  0  0  0  0  0  0  0  0  0  0  0
    3.2000   -2.7713    0.0000 H   0  0  0  0  0  0  0  0  0  0  0  0
  1  2  2  0  0  0  0
  2  3  1  0  0  0  0
  3  4  1  0  0  0  0
  3  5  1  0  0  0  0
  5  6  1  0  0  0  0
  5  7  2  0  0  0  0
  7  8  1  0  0  0  0
  8  9  2  0  0  0  0
  8 10  1  0  0  0  0
 10 11  1  0  0  0  0
 11 12  1  0  0  0  0
 12 13  1  0  0  0  0
 12 14  1  0  0  0  0
 12 15  1  0  0  0  0
 11 16  1  0  0  0  0
 11 17  1  0  0  0  0
  7 18  1  0  0  0  0
 18 19  2  0  0  0  0
 18 20  1  0  0  0  0
 20  2  1  0  0  0  0
 20 21  1  0  0  0  0
M  END
> <CAS>
38026-46-9

> <NAME>
5-PYRIMIDINECARBOXYLIC AICD, 1,2,3,4-TETRAHYDRO-

> <preferred_name>
5-Carbethoxy-2-thiouracil

> <iupac>
ethyl 4-oxo-2-sulfanylidene-1H-pyrimidine-5-carboxylate

> <SMILES>
CCOC(=O)C1=CNC(=S)NC1=O

> <Canonical_QSARr>
CCOC(=O)C1=CNC(=S)NC1=O

> <InChI_Code_QSARr>
InChI=1S/C7H8N2O3S/c1-2-12-6(11)4-3-8-7(13)9-5(4)10/h3H,2H2,1H3,(H2,8,9,10,13)

> <InChI Key_QSARr>
FQFSHLBWRUOCPX-UHFFFAOYSA-N

> <Salt_Solvent>
?

> <WS Temperature>
25

> <WS Reference>
YALKOWSKY,SH & DANNENFELSER,RM (1992)

> <dsstox_substance_id>
DTXSID30191435

> <LogMolar>
-2.0985

$$$$
38260-54-7
  -INDIGO-01081615412D

 35 35  0  0  0  0  0  0  0  0999 V2000
    5.6000    1.3856    0.0000 P   0  0  0  0  0  0  0  0  0  0  0  0
    6.4001   -0.0001    0.0000 O   0  0  0  0  0  0  0  0  0  0  0  0
    7.9999   -0.0001    0.0000 C   0  0  0  0  0  0  0  0  0  0  0  0
    9.6000   -0.0001    0.0000 H   0  0  0  0  0  0  0  0  0  0  0  0
    8.8000   -1.3856    0.0000 H   0  0  0  0  0  0  0  0  0  0  0  0
    8.8000    1.3856    0.0000 H   0  0  0  0  0  0  0  0  0  0  0  0
    6.9857    2.1857    0.0000 O   0  0  0  0  0  0  0  0  0  0  0  0
    6.9857    3.7856    0.0000 C   0  0  0  0  0  0  0  0  0  0  0  0
    8.3713    4.5857    0.0000 H   0  0  0  0  0  0  0  0  0  0  0  0
    6.9857    5.3856    0.0000 H   0  0  0  0  0  0  0  0  0  0  0  0
    5.6000    4.5857    0.0000 H   0  0  0  0  0  0  0  0  0  0  0  0
    4.2144    0.5857    0.0000 S   0  0  0  0  0  0  0  0  0  0  0  0
    4.8000    2.7713    0.0000 O   0  0  0  0  0  0  0  0  0  0  0  0
    3.1999    2.7713    0.0000 C   0  0  0  0  0  0  0  0  0  0  0  0
    2.3999    4.1570    0.0000 C   0  0  0  0  0  0  0  0  0  0  0  0
    3.1999    5.5425    0.0000 H   0  0  0  0  0  0  0  0  0  0  0  0
    0.8000    4.1570    0.0000 C   0  0  0  0  0  0  0  0  0  0  0  0
    0.0000    5.5425    0.0000 O   0  0  0  0  0  0  0  0  0  0  0  0
   -1.6001    5.5425    0.0000 C   0  0  0  0  0  0  0  0  0  0  0  0
   -3.1999    5.5425    0.0000 C   0  0  0  0  0  0  0  0  0  0  0  0
   -4.8000    5.5425    0.0000 H   0  0  0  0  0  0  0  0  0  0  0  0
   -4.0000    6.9282    0.0000 H   0  0  0  0  0  0  0  0  0  0  0  0
   -4.0000    4.1570    0.0000 H   0  0  0  0  0  0  0  0  0  0  0  0
   -1.6001    7.1426    0.0000 H   0  0  0  0  0  0  0  0  0  0  0  0
   -1.6001    3.9426    0.0000 H   0  0  0  0  0  0  0  0  0  0  0  0
    0.0000    2.7713    0.0000 N   0  0  0  1  0  0  0  0  0  0  0  0
    0.8000    1.3856    0.0000 C   0  0  0  0  0  0  0  0  0  0  0  0
    0.0000   -0.0001    0.0000 C   0  0  0  0  0  0  0  0  0  0  0  0
   -0.8000   -1.3856    0.0000 C   0  0  0  0  0  0  0  0  0  0  0  0
   -1.6001   -2.7713    0.0000 H   0  0  0  0  0  0  0  0  0  0  0  0
   -2.3999   -1.3856    0.0000 H   0  0  0  0  0  0  0  0  0  0  0  0
    0.0000   -2.7713    0.0000 H   0  0  0  0  0  0  0  0  0  0  0  0
   -1.3856    0.8000    0.0000 H   0  0  0  0  0  0  0  0  0  0  0  0
    1.3856   -0.8000    0.0000 H   0  0  0  0  0  0  0  0  0  0  0  0
    2.4001    1.3856    0.0000 N   0  0  0  1  0  0  0  0  0  0  0  0
  1  2  1  0  0  0  0
  2  3  1  0  0  0  0
  3  4  1  0  0  0  0
  3  5  1  0  0  0  0
  3  6  1  0  0  0  0
  1  7  1  0  0  0  0
  7  8  1  0  0  0  0
  8  9  1  0  0  0  0
  8 10  1  0  0  0  0
  8 11  1  0  0  0  0
  1 12  2  0  0  0  0
  1 13  1  0  0  0  0
 13 14  1  0  0  0  0
 14 15  4  0  0  0  0
 15 16  1  0  0  0  0
 15 17  4  0  0  0  0
 17 18  1  0  0  0  0
 18 19  1  0  0  0  0
 19 20  1  0  0  0  0
 20 21  1  0  0  0  0
 20 22  1  0  0  0  0
 20 23  1  0  0  0  0
 19 24  1  0  0  0  0
 19 25  1  0  0  0  0
 17 26  4  0  0  0  0
 26 27  4  0  0  0  0
 27 28  1  0  0  0  0
 28 29  1  0  0  0  0
 29 30  1  0  0  0  0
 29 31  1  0  0  0  0
 29 32  1  0  0  0  0
 28 33  1  0  0  0  0
 28 34  1  0  0  0  0
 27 35  4  0  0  0  0
 35 14  4  0  0  0  0
M  END
> <CAS>
38260-54-7

> <NAME>
ETRIMFOS

> <preferred_name>
Etrimfos

> <iupac>
O-(6-ethoxy-2-ethylpyrimidin-4-yl) O,O-dimethyl phosphorothioate

> <SMILES>
COP(=S)(Oc1cc([n]c(CC)[n]1)OCC)OC

> <Canonical_QSARr>
COP(=S)(Oc1cc([n]c(CC)[n]1)OCC)OC

> <InChI_Code_QSARr>
InChI=1S/C10H17N2O4PS/c1-5-8-11-9(15-6-2)7-10(12-8)16-17(18,13-3)14-4/h7H,5-6H2,1-4H3

> <InChI Key_QSARr>
FGIWFCGDPUIBEZ-UHFFFAOYSA-N

> <Salt_Solvent>
?

> <WS Temperature>
23

> <WS Reference>
WORTHING,CR & WALKER,SB (1987)

> <dsstox_substance_id>
DTXSID7041964

> <LogMolar>
-3.8638

$$$$
38380-01-7
  -INDIGO-01081615412D

 22 23  0  0  0  0  0  0  0  0999 V2000
    0.0001    0.0000    0.0000 C   0  0  0  0  0  0  0  0  0  0  0  0
    0.8001   -1.3856    0.0000 C   0  0  0  0  0  0  0  0  0  0  0  0
    0.0001   -2.7713    0.0000 H   0  0  0  0  0  0  0  0  0  0  0  0
    2.4000   -1.3856    0.0000 C   0  0  0  0  0  0  0  0  0  0  0  0
    3.2000   -2.7713    0.0000 Cl  0  0  0  0  0  0  0  0  0  0  0  0
    3.2000    0.0000    0.0000 C   0  0  0  0  0  0  0  0  0  0  0  0
    4.8000    0.0000    0.0000 Cl  0  0  0  0  0  0  0  0  0  0  0  0
    2.4000    1.3856    0.0000 C   0  0  0  0  0  0  0  0  0  0  0  0
    3.2000    2.7713    0.0000 H   0  0  0  0  0  0  0  0  0  0  0  0
    0.8001    1.3856    0.0000 C   0  0  0  0  0  0  0  0  0  0  0  0
    0.0001    2.7713    0.0000 Cl  0  0  0  0  0  0  0  0  0  0  0  0
   -1.6001   -0.0000    0.0000 C   0  0  0  0  0  0  0  0  0  0  0  0
   -2.4001    1.3856    0.0000 C   0  0  0  0  0  0  0  0  0  0  0  0
   -1.6001    2.7713    0.0000 H   0  0  0  0  0  0  0  0  0  0  0  0
   -4.0000    1.3856    0.0000 C   0  0  0  0  0  0  0  0  0  0  0  0
   -4.8000    2.7713    0.0000 H   0  0  0  0  0  0  0  0  0  0  0  0
   -4.8000   -0.0000    0.0000 C   0  0  0  0  0  0  0  0  0  0  0  0
   -6.4000   -0.0000    0.0000 Cl  0  0  0  0  0  0  0  0  0  0  0  0
   -4.0000   -1.3856    0.0000 C   0  0  0  0  0  0  0  0  0  0  0  0
   -4.8000   -2.7713    0.0000 H   0  0  0  0  0  0  0  0  0  0  0  0
   -2.4001   -1.3856    0.0000 C   0  0  0  0  0  0  0  0  0  0  0  0
   -1.6001   -2.7713    0.0000 Cl  0  0  0  0  0  0  0  0  0  0  0  0
  1  2  4  0  0  0  0
  2  3  1  0  0  0  0
  2  4  4  0  0  0  0
  4  5  1  0  0  0  0
  4  6  4  0  0  0  0
  6  7  1  0  0  0  0
  6  8  4  0  0  0  0
  8  9  1  0  0  0  0
  8 10  4  0  0  0  0
 10  1  4  0  0  0  0
 10 11  1  0  0  0  0
  1 12  1  0  0  0  0
 12 13  4  0  0  0  0
 13 14  1  0  0  0  0
 13 15  4  0  0  0  0
 15 16  1  0  0  0  0
 15 17  4  0  0  0  0
 17 18  1  0  0  0  0
 17 19  4  0  0  0  0
 19 20  1  0  0  0  0
 19 21  4  0  0  0  0
 21 12  4  0  0  0  0
 21 22  1  0  0  0  0
M  END
> <CAS>
38380-01-7

> <NAME>
2,2',4,4',5-PENTACHLOROBIPHENYL

> <preferred_name>
2,2',4,4',5-Pentachlorobiphenyl

> <iupac>
1,2,4-trichloro-5-(2,4-dichlorophenyl)benzene

> <SMILES>
Clc1cc(Cl)c(cc1)-c1cc(Cl)c(Cl)cc1Cl

> <Canonical_QSARr>
Clc1cc(Cl)c(cc1)-c1cc(Cl)c(Cl)cc1Cl

> <InChI_Code_QSARr>
InChI=1S/C12H5Cl5/c13-6-1-2-7(9(14)3-6)8-4-11(16)12(17)5-10(8)15/h1-5H

> <InChI Key_QSARr>
LMQJBFRGXHMNOX-UHFFFAOYSA-N

> <Salt_Solvent>
?

> <WS Temperature>
25

> <WS Reference>
PATIL,GS (1991)

> <dsstox_substance_id>
DTXSID1073496

> <LogMolar>
-7.9503

$$$$
38380-05-1
  -INDIGO-01081615412D

 22 23  0  0  0  0  0  0  0  0999 V2000
    0.0001    0.0000    0.0000 C   0  0  0  0  0  0  0  0  0  0  0  0
    0.8001   -1.3856    0.0000 C   0  0  0  0  0  0  0  0  0  0  0  0
    0.0001   -2.7713    0.0000 Cl  0  0  0  0  0  0  0  0  0  0  0  0
    2.4000   -1.3856    0.0000 C   0  0  0  0  0  0  0  0  0  0  0  0
    3.2000   -2.7713    0.0000 H   0  0  0  0  0  0  0  0  0  0  0  0
    3.2000    0.0000    0.0000 C   0  0  0  0  0  0  0  0  0  0  0  0
    4.8000    0.0000    0.0000 H   0  0  0  0  0  0  0  0  0  0  0  0
    2.4000    1.3856    0.0000 C   0  0  0  0  0  0  0  0  0  0  0  0
    3.2000    2.7713    0.0000 Cl  0  0  0  0  0  0  0  0  0  0  0  0
    0.8001    1.3856    0.0000 C   0  0  0  0  0  0  0  0  0  0  0  0
    0.0001    2.7713    0.0000 Cl  0  0  0  0  0  0  0  0  0  0  0  0
   -1.6001   -0.0000    0.0000 C   0  0  0  0  0  0  0  0  0  0  0  0
   -2.4001    1.3856    0.0000 C   0  0  0  0  0  0  0  0  0  0  0  0
   -1.6001    2.7713    0.0000 H   0  0  0  0  0  0  0  0  0  0  0  0
   -4.0000    1.3856    0.0000 C   0  0  0  0  0  0  0  0  0  0  0  0
   -4.8000    2.7713    0.0000 H   0  0  0  0  0  0  0  0  0  0  0  0
   -4.8000   -0.0000    0.0000 C   0  0  0  0  0  0  0  0  0  0  0  0
   -6.4000   -0.0000    0.0000 Cl  0  0  0  0  0  0  0  0  0  0  0  0
   -4.0000   -1.3856    0.0000 C   0  0  0  0  0  0  0  0  0  0  0  0
   -4.8000   -2.7713    0.0000 Cl  0  0  0  0  0  0  0  0  0  0  0  0
   -2.4001   -1.3856    0.0000 C   0  0  0  0  0  0  0  0  0  0  0  0
   -1.6001   -2.7713    0.0000 Cl  0  0  0  0  0  0  0  0  0  0  0  0
  1  2  4  0  0  0  0
  2  3  1  0  0  0  0
  2  4  4  0  0  0  0
  4  5  1  0  0  0  0
  4  6  4  0  0  0  0
  6  7  1  0  0  0  0
  6  8  4  0  0  0  0
  8  9  1  0  0  0  0
  8 10  4  0  0  0  0
 10  1  4  0  0  0  0
 10 11  1  0  0  0  0
  1 12  1  0  0  0  0
 12 13  4  0  0  0  0
 13 14  1  0  0  0  0
 13 15  4  0  0  0  0
 15 16  1  0  0  0  0
 15 17  4  0  0  0  0
 17 18  1  0  0  0  0
 17 19  4  0  0  0  0
 19 20  1  0  0  0  0
 19 21  4  0  0  0  0
 21 12  4  0  0  0  0
 21 22  1  0  0  0  0
M  END
> <CAS>
38380-05-1

> <NAME>
2,2',3,3',4,6'-HEXACHLOROBIPHENYL

> <preferred_name>
2,2',3,3',4,6'-Hexachlorobiphenyl

> <iupac>
1,2,3-trichloro-4-(2,3,6-trichlorophenyl)benzene

> <SMILES>
Clc1ccc(Cl)c(-c2ccc(Cl)c(Cl)c2Cl)c1Cl

> <Canonical_QSARr>
Clc1ccc(Cl)c(-c2ccc(Cl)c(Cl)c2Cl)c1Cl

> <InChI_Code_QSARr>
InChI=1S/C12H4Cl6/c13-6-3-4-7(14)11(17)9(6)5-1-2-8(15)12(18)10(5)16/h1-4H

> <InChI Key_QSARr>
OKBJVIVEFXPEOU-UHFFFAOYSA-N

> <Salt_Solvent>
?

> <WS Temperature>
25

> <WS Reference>
PATIL,GS (1991)

> <dsstox_substance_id>
DTXSID9074141

> <LogMolar>
-7.65

$$$$
38411-25-5
  -INDIGO-01081615412D

 22 23  0  0  0  0  0  0  0  0999 V2000
    0.0001    0.0000    0.0000 C   0  0  0  0  0  0  0  0  0  0  0  0
    0.8001   -1.3856    0.0000 C   0  0  0  0  0  0  0  0  0  0  0  0
    0.0001   -2.7713    0.0000 Cl  0  0  0  0  0  0  0  0  0  0  0  0
    2.4000   -1.3856    0.0000 C   0  0  0  0  0  0  0  0  0  0  0  0
    3.2000   -2.7713    0.0000 H   0  0  0  0  0  0  0  0  0  0  0  0
    3.2000    0.0000    0.0000 C   0  0  0  0  0  0  0  0  0  0  0  0
    4.8000    0.0000    0.0000 H   0  0  0  0  0  0  0  0  0  0  0  0
    2.4000    1.3856    0.0000 C   0  0  0  0  0  0  0  0  0  0  0  0
    3.2000    2.7713    0.0000 Cl  0  0  0  0  0  0  0  0  0  0  0  0
    0.8001    1.3856    0.0000 C   0  0  0  0  0  0  0  0  0  0  0  0
    0.0001    2.7713    0.0000 Cl  0  0  0  0  0  0  0  0  0  0  0  0
   -1.6001   -0.0000    0.0000 C   0  0  0  0  0  0  0  0  0  0  0  0
   -2.4001    1.3856    0.0000 C   0  0  0  0  0  0  0  0  0  0  0  0
   -1.6001    2.7713    0.0000 H   0  0  0  0  0  0  0  0  0  0  0  0
   -4.0000    1.3856    0.0000 C   0  0  0  0  0  0  0  0  0  0  0  0
   -4.8000    2.7713    0.0000 Cl  0  0  0  0  0  0  0  0  0  0  0  0
   -4.8000   -0.0000    0.0000 C   0  0  0  0  0  0  0  0  0  0  0  0
   -6.4000   -0.0000    0.0000 Cl  0  0  0  0  0  0  0  0  0  0  0  0
   -4.0000   -1.3856    0.0000 C   0  0  0  0  0  0  0  0  0  0  0  0
   -4.8000   -2.7713    0.0000 Cl  0  0  0  0  0  0  0  0  0  0  0  0
   -2.4001   -1.3856    0.0000 C   0  0  0  0  0  0  0  0  0  0  0  0
   -1.6001   -2.7713    0.0000 Cl  0  0  0  0  0  0  0  0  0  0  0  0
  1  2  4  0  0  0  0
  2  3  1  0  0  0  0
  2  4  4  0  0  0  0
  4  5  1  0  0  0  0
  4  6  4  0  0  0  0
  6  7  1  0  0  0  0
  6  8  4  0  0  0  0
  8  9  1  0  0  0  0
  8 10  4  0  0  0  0
 10  1  4  0  0  0  0
 10 11  1  0  0  0  0
  1 12  1  0  0  0  0
 12 13  4  0  0  0  0
 13 14  1  0  0  0  0
 13 15  4  0  0  0  0
 15 16  1  0  0  0  0
 15 17  4  0  0  0  0
 17 18  1  0  0  0  0
 17 19  4  0  0  0  0
 19 20  1  0  0  0  0
 19 21  4  0  0  0  0
 21 12  4  0  0  0  0
 21 22  1  0  0  0  0
M  END
> <CAS>
38411-25-5

> <NAME>
2,2',3,3',4,5,6'-HEPTACHLOROBIPHENYL

> <preferred_name>
2,2',3,3',4,5,6'-Heptachlorobiphenyl

> <iupac>
1,2,3,4-tetrachloro-5-(2,3,6-trichlorophenyl)benzene

> <SMILES>
Clc1c(cc(Cl)c(Cl)c1Cl)-c1c(Cl)c(Cl)ccc1Cl

> <Canonical_QSARr>
Clc1c(cc(Cl)c(Cl)c1Cl)-c1c(Cl)c(Cl)ccc1Cl

> <InChI_Code_QSARr>
InChI=1S/C12H3Cl7/c13-5-1-2-6(14)10(17)8(5)4-3-7(15)11(18)12(19)9(4)16/h1-3H

> <InChI Key_QSARr>
ZDLMBNHYTPHDLF-UHFFFAOYSA-N

> <Salt_Solvent>
?

> <WS Temperature>
25

> <WS Reference>
PATIL,GS (1991)

> <dsstox_substance_id>
DTXSID4074142

> <LogMolar>
-8.5901

$$$$
38444-78-9
  -INDIGO-01081615412D

 22 23  0  0  0  0  0  0  0  0999 V2000
    0.0001    0.0000    0.0000 C   0  0  0  0  0  0  0  0  0  0  0  0
    0.8001   -1.3856    0.0000 C   0  0  0  0  0  0  0  0  0  0  0  0
    0.0001   -2.7713    0.0000 H   0  0  0  0  0  0  0  0  0  0  0  0
    2.4000   -1.3856    0.0000 C   0  0  0  0  0  0  0  0  0  0  0  0
    3.2000   -2.7713    0.0000 H   0  0  0  0  0  0  0  0  0  0  0  0
    3.2000    0.0000    0.0000 C   0  0  0  0  0  0  0  0  0  0  0  0
    4.8000    0.0000    0.0000 H   0  0  0  0  0  0  0  0  0  0  0  0
    2.4000    1.3856    0.0000 C   0  0  0  0  0  0  0  0  0  0  0  0
    3.2000    2.7713    0.0000 Cl  0  0  0  0  0  0  0  0  0  0  0  0
    0.8001    1.3856    0.0000 C   0  0  0  0  0  0  0  0  0  0  0  0
    0.0001    2.7713    0.0000 Cl  0  0  0  0  0  0  0  0  0  0  0  0
   -1.6001   -0.0000    0.0000 C   0  0  0  0  0  0  0  0  0  0  0  0
   -2.4001    1.3856    0.0000 C   0  0  0  0  0  0  0  0  0  0  0  0
   -1.6001    2.7713    0.0000 H   0  0  0  0  0  0  0  0  0  0  0  0
   -4.0000    1.3856    0.0000 C   0  0  0  0  0  0  0  0  0  0  0  0
   -4.8000    2.7713    0.0000 H   0  0  0  0  0  0  0  0  0  0  0  0
   -4.8000   -0.0000    0.0000 C   0  0  0  0  0  0  0  0  0  0  0  0
   -6.4000   -0.0000    0.0000 H   0  0  0  0  0  0  0  0  0  0  0  0
   -4.0000   -1.3856    0.0000 C   0  0  0  0  0  0  0  0  0  0  0  0
   -4.8000   -2.7713    0.0000 H   0  0  0  0  0  0  0  0  0  0  0  0
   -2.4001   -1.3856    0.0000 C   0  0  0  0  0  0  0  0  0  0  0  0
   -1.6001   -2.7713    0.0000 Cl  0  0  0  0  0  0  0  0  0  0  0  0
  1  2  4  0  0  0  0
  2  3  1  0  0  0  0
  2  4  4  0  0  0  0
  4  5  1  0  0  0  0
  4  6  4  0  0  0  0
  6  7  1  0  0  0  0
  6  8  4  0  0  0  0
  8  9  1  0  0  0  0
  8 10  4  0  0  0  0
 10  1  4  0  0  0  0
 10 11  1  0  0  0  0
  1 12  1  0  0  0  0
 12 13  4  0  0  0  0
 13 14  1  0  0  0  0
 13 15  4  0  0  0  0
 15 16  1  0  0  0  0
 15 17  4  0  0  0  0
 17 18  1  0  0  0  0
 17 19  4  0  0  0  0
 19 20  1  0  0  0  0
 19 21  4  0  0  0  0
 21 12  4  0  0  0  0
 21 22  1  0  0  0  0
M  END
> <CAS>
38444-78-9

> <NAME>
2,2',3'-TRICHLOROBIPHENYL

> <preferred_name>
2,2',3-Trichlorobiphenyl

> <iupac>
1,2-dichloro-3-(2-chlorophenyl)benzene

> <SMILES>
Clc1ccccc1-c1cccc(Cl)c1Cl

> <Canonical_QSARr>
Clc1ccccc1-c1cccc(Cl)c1Cl

> <InChI_Code_QSARr>
InChI=1S/C12H7Cl3/c13-10-6-2-1-4-8(10)9-5-3-7-11(14)12(9)15/h1-7H

> <InChI Key_QSARr>
XVIZMMSINIOIQP-UHFFFAOYSA-N

> <Salt_Solvent>
?

> <WS Temperature>
20

> <WS Reference>
YALKOWSKY,SH & DANNENFELSER,RM (1992)

> <dsstox_substance_id>
DTXSID3073501

> <LogMolar>
-5.944

$$$$
38444-90-5
  -INDIGO-01081615412D

 22 23  0  0  0  0  0  0  0  0999 V2000
    0.0001    0.0000    0.0000 C   0  0  0  0  0  0  0  0  0  0  0  0
    0.8001   -1.3856    0.0000 C   0  0  0  0  0  0  0  0  0  0  0  0
    0.0001   -2.7713    0.0000 H   0  0  0  0  0  0  0  0  0  0  0  0
    2.4000   -1.3856    0.0000 C   0  0  0  0  0  0  0  0  0  0  0  0
    3.2000   -2.7713    0.0000 H   0  0  0  0  0  0  0  0  0  0  0  0
    3.2000    0.0000    0.0000 C   0  0  0  0  0  0  0  0  0  0  0  0
    4.8000    0.0000    0.0000 Cl  0  0  0  0  0  0  0  0  0  0  0  0
    2.4000    1.3856    0.0000 C   0  0  0  0  0  0  0  0  0  0  0  0
    3.2000    2.7713    0.0000 Cl  0  0  0  0  0  0  0  0  0  0  0  0
    0.8001    1.3856    0.0000 C   0  0  0  0  0  0  0  0  0  0  0  0
    0.0001    2.7713    0.0000 H   0  0  0  0  0  0  0  0  0  0  0  0
   -1.6001   -0.0000    0.0000 C   0  0  0  0  0  0  0  0  0  0  0  0
   -2.4001    1.3856    0.0000 C   0  0  0  0  0  0  0  0  0  0  0  0
   -1.6001    2.7713    0.0000 H   0  0  0  0  0  0  0  0  0  0  0  0
   -4.0000    1.3856    0.0000 C   0  0  0  0  0  0  0  0  0  0  0  0
   -4.8000    2.7713    0.0000 H   0  0  0  0  0  0  0  0  0  0  0  0
   -4.8000   -0.0000    0.0000 C   0  0  0  0  0  0  0  0  0  0  0  0
   -6.4000   -0.0000    0.0000 Cl  0  0  0  0  0  0  0  0  0  0  0  0
   -4.0000   -1.3856    0.0000 C   0  0  0  0  0  0  0  0  0  0  0  0
   -4.8000   -2.7713    0.0000 H   0  0  0  0  0  0  0  0  0  0  0  0
   -2.4001   -1.3856    0.0000 C   0  0  0  0  0  0  0  0  0  0  0  0
   -1.6001   -2.7713    0.0000 H   0  0  0  0  0  0  0  0  0  0  0  0
  1  2  4  0  0  0  0
  2  3  1  0  0  0  0
  2  4  4  0  0  0  0
  4  5  1  0  0  0  0
  4  6  4  0  0  0  0
  6  7  1  0  0  0  0
  6  8  4  0  0  0  0
  8  9  1  0  0  0  0
  8 10  4  0  0  0  0
 10  1  4  0  0  0  0
 10 11  1  0  0  0  0
  1 12  1  0  0  0  0
 12 13  4  0  0  0  0
 13 14  1  0  0  0  0
 13 15  4  0  0  0  0
 15 16  1  0  0  0  0
 15 17  4  0  0  0  0
 17 18  1  0  0  0  0
 17 19  4  0  0  0  0
 19 20  1  0  0  0  0
 19 21  4  0  0  0  0
 21 12  4  0  0  0  0
 21 22  1  0  0  0  0
M  END
> <CAS>
38444-90-5

> <NAME>
3,4,4'-TRICHLOROBIPHENYL

> <preferred_name>


> <iupac>


> <SMILES>
Clc1ccc(cc1)-c1cc(Cl)c(Cl)cc1

> <Canonical_QSARr>
Clc1ccc(cc1)-c1cc(Cl)c(Cl)cc1

> <InChI_Code_QSARr>
InChI=1S/C12H7Cl3/c13-10-4-1-8(2-5-10)9-3-6-11(14)12(15)7-9/h1-7H

> <InChI Key_QSARr>
YZANRISAORXTHU-UHFFFAOYSA-N

> <Salt_Solvent>
?

> <WS Temperature>
20

> <WS Reference>
YALKOWSKY,SH & DANNENFELSER,RM (1992)

> <dsstox_substance_id>


> <LogMolar>
-6.5541

$$$$
38580-22-2
  -INDIGO-01081615412D

 21 21  0  0  0  0  0  0  0  0999 V2000
   -0.0000    2.7713    0.0000 O   0  0  0  0  0  0  0  0  0  0  0  0
    0.8000    1.3856    0.0000 C   0  0  0  0  0  0  0  0  0  0  0  0
   -0.0000    0.0000    0.0000 C   0  0  0  0  0  0  0  0  0  0  0  0
   -1.6000    0.0000    0.0000 C   0  0  0  0  0  0  0  0  0  0  0  0
   -3.2001    0.0000    0.0000 C   0  0  0  0  0  0  0  0  0  0  0  0
   -4.0000   -1.3856    0.0000 O   0  0  0  0  0  0  0  0  0  0  0  0
   -4.0000    1.3856    0.0000 O   0  0  0  0  0  0  0  0  0  0  0  0
   -5.6000    1.3856    0.0000 H   0  0  0  0  0  0  0  0  0  0  0  0
   -1.6000    1.6000    0.0000 H   0  0  0  0  0  0  0  0  0  0  0  0
   -1.6000   -1.6000    0.0000 H   0  0  0  0  0  0  0  0  0  0  0  0
    0.8000   -1.3856    0.0000 C   0  0  0  0  0  0  0  0  0  0  0  0
   -0.0000   -2.7713    0.0000 C   0  0  0  0  0  0  0  0  0  0  0  0
   -0.8000   -4.1569    0.0000 H   0  0  0  0  0  0  0  0  0  0  0  0
    0.8000   -4.1569    0.0000 H   0  0  0  0  0  0  0  0  0  0  0  0
   -1.6000   -2.7713    0.0000 H   0  0  0  0  0  0  0  0  0  0  0  0
    2.4001   -1.3856    0.0000 N   0  0  0  0  0  0  0  0  0  0  0  0
    3.2000   -2.7713    0.0000 H   0  0  0  0  0  0  0  0  0  0  0  0
    3.2000    0.0000    0.0000 C   0  0  0  0  0  0  0  0  0  0  0  0
    4.8000    0.0000    0.0000 O   0  0  0  0  0  0  0  0  0  0  0  0
    2.4001    1.3856    0.0000 N   0  0  0  0  0  0  0  0  0  0  0  0
    3.2000    2.7713    0.0000 H   0  0  0  0  0  0  0  0  0  0  0  0
  1  2  2  0  0  0  0
  2  3  1  0  0  0  0
  3  4  1  0  0  0  0
  4  5  1  0  0  0  0
  5  6  2  0  0  0  0
  5  7  1  0  0  0  0
  7  8  1  0  0  0  0
  4  9  1  0  0  0  0
  4 10  1  0  0  0  0
  3 11  2  0  0  0  0
 11 12  1  0  0  0  0
 12 13  1  0  0  0  0
 12 14  1  0  0  0  0
 12 15  1  0  0  0  0
 11 16  1  0  0  0  0
 16 17  1  0  0  0  0
 16 18  1  0  0  0  0
 18 19  2  0  0  0  0
 18 20  1  0  0  0  0
 20  2  1  0  0  0  0
 20 21  1  0  0  0  0
M  END
> <CAS>
38580-22-2

> <NAME>
5-Pyrimidineacetic acid, 1,2,3,4-tetrahydro-6-me

> <preferred_name>
38580-22-2

> <iupac>
C7H8N2O4

> <SMILES>
CC1NC(=O)NC(=O)C=1CC(O)=O

> <Canonical_QSARr>
CC1NC(=O)NC(=O)C=1CC(O)=O

> <InChI_Code_QSARr>
InChI=1S/C7H8N2O4/c1-3-4(2-5(10)11)6(12)9-7(13)8-3/h2H2,1H3,(H,10,11)(H2,8,9,12,13)

> <InChI Key_QSARr>
GFWWREGOTNQVGC-UHFFFAOYSA-N

> <Salt_Solvent>
?

> <WS Temperature>
25

> <WS Reference>
BEILSTEIN

> <dsstox_substance_id>
DTXSID90353491

> <LogMolar>
-2.3109

$$$$
38739-06-9
  -INDIGO-01081615412D

 23 22  0  0  0  0  0  0  0  0999 V2000
   -0.8000    1.3856    0.0000 C   0  0  0  0  0  0  0  0  0  0  0  0
   -0.0000   -0.0000    0.0000 C   0  0  0  0  0  0  0  0  0  0  0  0
    1.3856    0.8000    0.0000 S   0  0  0  0  0  0  0  0  0  0  0  0
    2.7713   -0.0000    0.0000 S   0  0  0  0  0  0  0  0  0  0  0  0
    4.1570    0.8000    0.0000 C   0  0  0  0  0  0  0  0  0  0  0  0
    5.5426    1.6000    0.0000 C   0  0  0  0  0  0  0  0  0  0  0  0
    6.9282    2.4000    0.0000 H   0  0  0  0  0  0  0  0  0  0  0  0
    6.9282    0.8000    0.0000 H   0  0  0  0  0  0  0  0  0  0  0  0
    5.5426    3.2000    0.0000 H   0  0  0  0  0  0  0  0  0  0  0  0
    4.9569   -0.5856    0.0000 C   0  0  0  0  0  0  0  0  0  0  0  0
    5.7569   -1.9713    0.0000 H   0  0  0  0  0  0  0  0  0  0  0  0
    4.1570   -1.9713    0.0000 H   0  0  0  0  0  0  0  0  0  0  0  0
    6.5569   -0.5856    0.0000 H   0  0  0  0  0  0  0  0  0  0  0  0
    3.3569    2.1856    0.0000 H   0  0  0  0  0  0  0  0  0  0  0  0
    1.3856    2.4000    0.0000 O   0  0  0  0  0  0  0  0  0  0  0  0
   -1.3857   -0.8000    0.0000 C   0  0  0  0  0  0  0  0  0  0  0  0
   -2.7713   -1.6000    0.0000 H   0  0  0  0  0  0  0  0  0  0  0  0
   -1.3857   -2.4000    0.0000 H   0  0  0  0  0  0  0  0  0  0  0  0
   -2.7713   -0.0000    0.0000 H   0  0  0  0  0  0  0  0  0  0  0  0
    0.8001   -1.3856    0.0000 H   0  0  0  0  0  0  0  0  0  0  0  0
   -1.6000    2.7713    0.0000 H   0  0  0  0  0  0  0  0  0  0  0  0
   -0.0000    2.7713    0.0000 H   0  0  0  0  0  0  0  0  0  0  0  0
   -2.3999    1.3856    0.0000 H   0  0  0  0  0  0  0  0  0  0  0  0
  1  2  1  0  0  0  0
  2  3  1  0  0  0  0
  3  4  1  0  0  0  0
  4  5  1  0  0  0  0
  5  6  1  0  0  0  0
  6  7  1  0  0  0  0
  6  8  1  0  0  0  0
  6  9  1  0  0  0  0
  5 10  1  0  0  0  0
 10 11  1  0  0  0  0
 10 12  1  0  0  0  0
 10 13  1  0  0  0  0
  5 14  1  0  0  0  0
  3 15  2  0  0  0  0
  2 16  1  0  0  0  0
 16 17  1  0  0  0  0
 16 18  1  0  0  0  0
 16 19  1  0  0  0  0
  2 20  1  0  0  0  0
  1 21  1  0  0  0  0
  1 22  1  0  0  0  0
  1 23  1  0  0  0  0
M  END
> <CAS>
38739-06-9

> <NAME>
Propane-2-thiosulfinic acid S-isopropyl ester

> <preferred_name>


> <iupac>


> <SMILES>
CC(C)S(=O)SC(C)C

> <Canonical_QSARr>
CC(C)S(=O)SC(C)C

> <InChI_Code_QSARr>
InChI=1S/C6H14OS2/c1-5(2)8-9(7)6(3)4/h5-6H,1-4H3

> <InChI Key_QSARr>
IYZLJTJFIUHNRL-UHFFFAOYSA-N

> <Salt_Solvent>
?

> <WS Temperature>


> <WS Reference>
BEILSTEIN

> <dsstox_substance_id>


> <LogMolar>
-0.823

$$$$
38964-22-6
  -INDIGO-01081615412D

 22 24  0  0  0  0  0  0  0  0999 V2000
   -1.3856    0.8000    0.0000 O   0  0  0  0  0  0  0  0  0  0  0  0
   -2.7712   -0.0000    0.0000 C   0  0  0  0  0  0  0  0  0  0  0  0
   -4.1569    0.8000    0.0000 C   0  0  0  0  0  0  0  0  0  0  0  0
   -5.5425   -0.0000    0.0000 C   0  0  0  0  0  0  0  0  0  0  0  0
   -6.9282    0.8000    0.0000 Cl  0  0  0  0  0  0  0  0  0  0  0  0
   -5.5425   -1.6000    0.0000 C   0  0  0  0  0  0  0  0  0  0  0  0
   -4.1569   -2.4000    0.0000 C   0  0  0  0  0  0  0  0  0  0  0  0
   -4.1569   -4.0000    0.0000 H   0  0  0  0  0  0  0  0  0  0  0  0
   -2.7712   -1.6000    0.0000 C   0  0  0  0  0  0  0  0  0  0  0  0
   -1.3856   -2.4000    0.0000 O   0  0  0  0  0  0  0  0  0  0  0  0
   -0.0001   -1.6000    0.0000 C   0  0  0  0  0  0  0  0  0  0  0  0
    1.3856   -2.4000    0.0000 C   0  0  0  0  0  0  0  0  0  0  0  0
    2.7713   -1.6000    0.0000 C   0  0  0  0  0  0  0  0  0  0  0  0
    2.7713   -0.0000    0.0000 C   0  0  0  0  0  0  0  0  0  0  0  0
    4.1569    0.8000    0.0000 Cl  0  0  0  0  0  0  0  0  0  0  0  0
    1.3856    0.8000    0.0000 C   0  0  0  0  0  0  0  0  0  0  0  0
    1.3856    2.4000    0.0000 H   0  0  0  0  0  0  0  0  0  0  0  0
   -0.0001   -0.0000    0.0000 C   0  0  0  0  0  0  0  0  0  0  0  0
    4.1569   -2.4000    0.0000 H   0  0  0  0  0  0  0  0  0  0  0  0
    1.3856   -4.0000    0.0000 H   0  0  0  0  0  0  0  0  0  0  0  0
   -6.9282   -2.4000    0.0000 H   0  0  0  0  0  0  0  0  0  0  0  0
   -4.1569    2.4000    0.0000 H   0  0  0  0  0  0  0  0  0  0  0  0
  1  2  1  0  0  0  0
  2  3  4  0  0  0  0
  3  4  4  0  0  0  0
  4  5  1  0  0  0  0
  4  6  4  0  0  0  0
  6  7  4  0  0  0  0
  7  8  1  0  0  0  0
  7  9  4  0  0  0  0
  9  2  4  0  0  0  0
  9 10  1  0  0  0  0
 10 11  1  0  0  0  0
 11 12  4  0  0  0  0
 12 13  4  0  0  0  0
 13 14  4  0  0  0  0
 14 15  1  0  0  0  0
 14 16  4  0  0  0  0
 16 17  1  0  0  0  0
 16 18  4  0  0  0  0
 18  1  1  0  0  0  0
 18 11  4  0  0  0  0
 13 19  1  0  0  0  0
 12 20  1  0  0  0  0
  6 21  1  0  0  0  0
  3 22  1  0  0  0  0
M  END
> <CAS>
38964-22-6

> <NAME>
2,8-DICHLORODIBENZO-P-DIOXIN

> <preferred_name>


> <iupac>


> <SMILES>
Clc1cc2Oc3cc(Cl)ccc3Oc2cc1

> <Canonical_QSARr>
Clc1cc2Oc3cc(Cl)ccc3Oc2cc1

> <InChI_Code_QSARr>
InChI=1S/C12H6Cl2O2/c13-7-1-3-9-11(5-7)16-12-6-8(14)2-4-10(12)15-9/h1-6H

> <InChI Key_QSARr>
WMWJCKBJUQDYLM-UHFFFAOYSA-N

> <Salt_Solvent>
?

> <WS Temperature>
25

> <WS Reference>
YALKOWSKY,SH & DANNENFELSER,RM (1992)

> <dsstox_substance_id>


> <LogMolar>
-7.1806

$$$$
39227-28-6
  -INDIGO-01081615412D

 22 24  0  0  0  0  0  0  0  0999 V2000
   -0.0001   -0.0000    0.0000 C   0  0  0  0  0  0  0  0  0  0  0  0
   -1.3857    0.8000    0.0000 O   0  0  0  0  0  0  0  0  0  0  0  0
   -2.7712   -0.0000    0.0000 C   0  0  0  0  0  0  0  0  0  0  0  0
   -4.1569    0.8000    0.0000 C   0  0  0  0  0  0  0  0  0  0  0  0
   -5.5425   -0.0000    0.0000 C   0  0  0  0  0  0  0  0  0  0  0  0
   -5.5425   -1.6000    0.0000 C   0  0  0  0  0  0  0  0  0  0  0  0
   -4.1569   -2.4000    0.0000 C   0  0  0  0  0  0  0  0  0  0  0  0
   -4.1569   -4.0000    0.0000 Cl  0  0  0  0  0  0  0  0  0  0  0  0
   -2.7712   -1.6000    0.0000 C   0  0  0  0  0  0  0  0  0  0  0  0
   -1.3857   -2.4000    0.0000 O   0  0  0  0  0  0  0  0  0  0  0  0
   -0.0001   -1.6000    0.0000 C   0  0  0  0  0  0  0  0  0  0  0  0
    1.3856   -2.4000    0.0000 C   0  0  0  0  0  0  0  0  0  0  0  0
    1.3856   -4.0000    0.0000 H   0  0  0  0  0  0  0  0  0  0  0  0
    2.7713   -1.6000    0.0000 C   0  0  0  0  0  0  0  0  0  0  0  0
    4.1569   -2.4000    0.0000 Cl  0  0  0  0  0  0  0  0  0  0  0  0
    2.7713   -0.0000    0.0000 C   0  0  0  0  0  0  0  0  0  0  0  0
    4.1569    0.8000    0.0000 Cl  0  0  0  0  0  0  0  0  0  0  0  0
    1.3856    0.8000    0.0000 C   0  0  0  0  0  0  0  0  0  0  0  0
    1.3856    2.4000    0.0000 H   0  0  0  0  0  0  0  0  0  0  0  0
   -6.9282   -2.4000    0.0000 Cl  0  0  0  0  0  0  0  0  0  0  0  0
   -6.9282    0.8000    0.0000 Cl  0  0  0  0  0  0  0  0  0  0  0  0
   -4.1569    2.4000    0.0000 Cl  0  0  0  0  0  0  0  0  0  0  0  0
  1  2  1  0  0  0  0
  2  3  1  0  0  0  0
  3  4  4  0  0  0  0
  4  5  4  0  0  0  0
  5  6  4  0  0  0  0
  6  7  4  0  0  0  0
  7  8  1  0  0  0  0
  7  9  4  0  0  0  0
  9  3  4  0  0  0  0
  9 10  1  0  0  0  0
 10 11  1  0  0  0  0
 11  1  4  0  0  0  0
 11 12  4  0  0  0  0
 12 13  1  0  0  0  0
 12 14  4  0  0  0  0
 14 15  1  0  0  0  0
 14 16  4  0  0  0  0
 16 17  1  0  0  0  0
 16 18  4  0  0  0  0
 18  1  4  0  0  0  0
 18 19  1  0  0  0  0
  6 20  1  0  0  0  0
  5 21  1  0  0  0  0
  4 22  1  0  0  0  0
M  END
> <CAS>
39227-28-6

> <NAME>
1,2,3,4,7,8-HEXACHLORODIBENZO-P-DIOXIN

> <preferred_name>
1,2,3,4,7,8-Hexachlorodibenzodioxin

> <iupac>
1,2,3,4,7,8-hexachlorooxanthrene

> <SMILES>
Clc1cc2Oc3c(Oc2cc1Cl)c(Cl)c(Cl)c(Cl)c3Cl

> <Canonical_QSARr>
Clc1cc2Oc3c(Oc2cc1Cl)c(Cl)c(Cl)c(Cl)c3Cl

> <InChI_Code_QSARr>
InChI=1S/C12H2Cl6O2/c13-3-1-5-6(2-4(3)14)20-12-10(18)8(16)7(15)9(17)11(12)19-5/h1-2H

> <InChI Key_QSARr>
WCYYQNSQJHPVMG-UHFFFAOYSA-N

> <Salt_Solvent>
?

> <WS Temperature>
20

> <WS Reference>
YALKOWSKY,SH & DANNENFELSER,RM (1992)

> <dsstox_substance_id>
DTXSID8052067

> <LogMolar>
-10.9486

$$$$
39227-61-7
  -INDIGO-01081615412D

 22 24  0  0  0  0  0  0  0  0999 V2000
    0.0001   -0.0000    0.0000 C   0  0  0  0  0  0  0  0  0  0  0  0
   -1.3856    0.8000    0.0000 C   0  0  0  0  0  0  0  0  0  0  0  0
   -1.3856    2.4000    0.0000 Cl  0  0  0  0  0  0  0  0  0  0  0  0
   -2.7713   -0.0000    0.0000 C   0  0  0  0  0  0  0  0  0  0  0  0
   -4.1569    0.8000    0.0000 Cl  0  0  0  0  0  0  0  0  0  0  0  0
   -2.7713   -1.6000    0.0000 C   0  0  0  0  0  0  0  0  0  0  0  0
   -4.1569   -2.4000    0.0000 Cl  0  0  0  0  0  0  0  0  0  0  0  0
   -1.3856   -2.4000    0.0000 C   0  0  0  0  0  0  0  0  0  0  0  0
   -1.3856   -4.0000    0.0000 Cl  0  0  0  0  0  0  0  0  0  0  0  0
    0.0001   -1.6000    0.0000 C   0  0  0  0  0  0  0  0  0  0  0  0
    1.3857   -2.4000    0.0000 O   0  0  0  0  0  0  0  0  0  0  0  0
    2.7712   -1.6000    0.0000 C   0  0  0  0  0  0  0  0  0  0  0  0
    2.7712   -0.0000    0.0000 C   0  0  0  0  0  0  0  0  0  0  0  0
    4.1569    0.8000    0.0000 C   0  0  0  0  0  0  0  0  0  0  0  0
    5.5425   -0.0000    0.0000 C   0  0  0  0  0  0  0  0  0  0  0  0
    6.9282    0.8000    0.0000 Cl  0  0  0  0  0  0  0  0  0  0  0  0
    5.5425   -1.6000    0.0000 C   0  0  0  0  0  0  0  0  0  0  0  0
    4.1569   -2.4000    0.0000 C   0  0  0  0  0  0  0  0  0  0  0  0
    4.1569   -4.0000    0.0000 H   0  0  0  0  0  0  0  0  0  0  0  0
    6.9282   -2.4000    0.0000 H   0  0  0  0  0  0  0  0  0  0  0  0
    4.1569    2.4000    0.0000 H   0  0  0  0  0  0  0  0  0  0  0  0
    1.3857    0.8000    0.0000 O   0  0  0  0  0  0  0  0  0  0  0  0
  1  2  4  0  0  0  0
  2  3  1  0  0  0  0
  2  4  4  0  0  0  0
  4  5  1  0  0  0  0
  4  6  4  0  0  0  0
  6  7  1  0  0  0  0
  6  8  4  0  0  0  0
  8  9  1  0  0  0  0
  8 10  4  0  0  0  0
 10  1  4  0  0  0  0
 10 11  1  0  0  0  0
 11 12  1  0  0  0  0
 12 13  4  0  0  0  0
 13 14  4  0  0  0  0
 14 15  4  0  0  0  0
 15 16  1  0  0  0  0
 15 17  4  0  0  0  0
 17 18  4  0  0  0  0
 18 12  4  0  0  0  0
 18 19  1  0  0  0  0
 17 20  1  0  0  0  0
 14 21  1  0  0  0  0
 13 22  1  0  0  0  0
 22  1  1  0  0  0  0
M  END
> <CAS>
39227-61-7

> <NAME>
1,2,3,4,7-PENTACHLORODIBENZO-P-DIOXIN

> <preferred_name>
1,2,3,4,7-Pentachlorodibenzo-p-dioxin

> <iupac>
1,2,3,4,7-pentachlorooxanthrene

> <SMILES>
Clc1cc2Oc3c(Oc2cc1)c(Cl)c(Cl)c(Cl)c3Cl

> <Canonical_QSARr>
Clc1cc2Oc3c(Oc2cc1)c(Cl)c(Cl)c(Cl)c3Cl

> <InChI_Code_QSARr>
InChI=1S/C12H3Cl5O2/c13-4-1-2-5-6(3-4)19-12-10(17)8(15)7(14)9(16)11(12)18-5/h1-3H

> <InChI Key_QSARr>
WRNGAZFESPEMCN-UHFFFAOYSA-N

> <Salt_Solvent>
?

> <WS Temperature>
20

> <WS Reference>
YALKOWSKY,SH & DANNENFELSER,RM (1992)

> <dsstox_substance_id>
DTXSID6074041

> <LogMolar>
-9.4728

$$$$
39807-15-3
  -INDIGO-01081615412D

 36 37  0  0  0  0  0  0  0  0999 V2000
  -13.8229   -2.7710    0.0000 C   0  0  0  0  0  0  0  0  0  0  0  0
  -12.4374   -1.9710    0.0000 C   0  0  0  0  0  0  0  0  0  0  0  0
  -11.0517   -1.1710    0.0000 C   0  0  0  0  0  0  0  0  0  0  0  0
   -9.6662   -0.3710    0.0000 O   0  0  0  0  0  0  0  0  0  0  0  0
   -8.2804   -1.1710    0.0000 C   0  0  0  0  0  0  0  0  0  0  0  0
   -8.2804   -2.7710    0.0000 C   0  0  0  0  0  0  0  0  0  0  0  0
   -9.6662   -3.5711    0.0000 Cl  0  0  0  0  0  0  0  0  0  0  0  0
   -6.8947   -3.5711    0.0000 C   0  0  0  0  0  0  0  0  0  0  0  0
   -6.8947   -5.1710    0.0000 H   0  0  0  0  0  0  0  0  0  0  0  0
   -5.5092   -2.7710    0.0000 C   0  0  0  0  0  0  0  0  0  0  0  0
   -4.1235   -3.5711    0.0000 Cl  0  0  0  0  0  0  0  0  0  0  0  0
   -5.5092   -1.1710    0.0000 C   0  0  0  0  0  0  0  0  0  0  0  0
   -4.1235   -0.3710    0.0000 N   0  0  0  0  0  0  0  0  0  0  0  0
   -2.6619   -1.0217    0.0000 N   0  0  0  0  0  0  0  0  0  0  0  0
   -1.5913    0.1673    0.0000 C   0  0  0  0  0  0  0  0  0  0  0  0
    0.0001    0.0000    0.0000 C   0  0  0  0  0  0  0  0  0  0  0  0
    1.5913   -0.1672    0.0000 C   0  0  0  0  0  0  0  0  0  0  0  0
    3.1825   -0.3344    0.0000 H   0  0  0  0  0  0  0  0  0  0  0  0
    2.5317    1.1272    0.0000 H   0  0  0  0  0  0  0  0  0  0  0  0
    2.2421   -1.6289    0.0000 H   0  0  0  0  0  0  0  0  0  0  0  0
    0.1674    1.5912    0.0000 C   0  0  0  0  0  0  0  0  0  0  0  0
    0.3344    3.1825    0.0000 H   0  0  0  0  0  0  0  0  0  0  0  0
    1.6289    2.2420    0.0000 H   0  0  0  0  0  0  0  0  0  0  0  0
   -1.1272    2.5316    0.0000 H   0  0  0  0  0  0  0  0  0  0  0  0
   -0.1671   -1.5913    0.0000 C   0  0  0  0  0  0  0  0  0  0  0  0
   -0.3344   -3.1824    0.0000 H   0  0  0  0  0  0  0  0  0  0  0  0
    1.1271   -2.5317    0.0000 H   0  0  0  0  0  0  0  0  0  0  0  0
   -1.6289   -2.2420    0.0000 H   0  0  0  0  0  0  0  0  0  0  0  0
   -2.3911    1.5529    0.0000 O   0  0  0  0  0  0  0  0  0  0  0  0
   -3.9562    1.2203    0.0000 C   0  0  0  0  0  0  0  0  0  0  0  0
   -5.1452    2.2908    0.0000 O   0  0  0  0  0  0  0  0  0  0  0  0
   -6.8947   -0.3710    0.0000 C   0  0  0  0  0  0  0  0  0  0  0  0
   -6.8947    1.2289    0.0000 H   0  0  0  0  0  0  0  0  0  0  0  0
  -11.8517    0.2147    0.0000 H   0  0  0  0  0  0  0  0  0  0  0  0
  -10.2516   -2.5567    0.0000 H   0  0  0  0  0  0  0  0  0  0  0  0
  -15.2086   -3.5711    0.0000 H   0  0  0  0  0  0  0  0  0  0  0  0
  1  2  3  0  0  0  0
  2  3  1  0  0  0  0
  3  4  1  0  0  0  0
  4  5  1  0  0  0  0
  5  6  4  0  0  0  0
  6  7  1  0  0  0  0
  6  8  4  0  0  0  0
  8  9  1  0  0  0  0
  8 10  4  0  0  0  0
 10 11  1  0  0  0  0
 10 12  4  0  0  0  0
 12 13  1  0  0  0  0
 13 14  1  0  0  0  0
 14 15  2  0  0  0  0
 15 16  1  0  0  0  0
 16 17  1  0  0  0  0
 17 18  1  0  0  0  0
 17 19  1  0  0  0  0
 17 20  1  0  0  0  0
 16 21  1  0  0  0  0
 21 22  1  0  0  0  0
 21 23  1  0  0  0  0
 21 24  1  0  0  0  0
 16 25  1  0  0  0  0
 25 26  1  0  0  0  0
 25 27  1  0  0  0  0
 25 28  1  0  0  0  0
 15 29  1  0  0  0  0
 29 30  1  0  0  0  0
 30 13  1  0  0  0  0
 30 31  2  0  0  0  0
 12 32  4  0  0  0  0
 32  5  4  0  0  0  0
 32 33  1  0  0  0  0
  3 34  1  0  0  0  0
  3 35  1  0  0  0  0
  1 36  1  0  0  0  0
M  END
> <CAS>
39807-15-3

> <NAME>
Oxadiargyl

> <preferred_name>
Oxadiargyl

> <iupac>
5-tert-butyl-3-[2,4-dichloro-5-(prop-2-yn-1-yloxy)phenyl]-1,3,4-oxadiazol-2(3H)-one

> <SMILES>
CC(C)(C)C1=NN(C(=O)O1)c1cc(OCC#C)c(Cl)cc1Cl

> <Canonical_QSARr>
CC(C)(C)C1=NN(C(=O)O1)c1cc(OCC#C)c(Cl)cc1Cl

> <InChI_Code_QSARr>
InChI=1S/C15H14Cl2N2O3/c1-5-6-21-12-8-11(9(16)7-10(12)17)19-14(20)22-13(18-19)15(2,3)4/h1,7-8H,6H2,2-4H3

> <InChI Key_QSARr>
DVOODWOZJVJKQR-UHFFFAOYSA-N

> <Salt_Solvent>
?

> <WS Temperature>
20

> <WS Reference>
TOMLIN,C (1997)

> <dsstox_substance_id>
DTXSID8058085

> <LogMolar>
-5.9648

$$$$
40120-74-9
  -INDIGO-01081615412D

 35 34  0  0  0  0  0  0  0  0999 V2000
    0.0001    0.0000    0.0000 P   0  0  0  0  0  0  0  0  0  0  0  0
   -1.3856   -0.8000    0.0000 O   0  0  0  0  0  0  0  0  0  0  0  0
   -2.7712    0.0000    0.0000 C   0  0  0  0  0  0  0  0  0  0  0  0
   -3.5712   -1.3856    0.0000 Cl  0  0  0  0  0  0  0  0  0  0  0  0
   -4.1569    0.8000    0.0000 C   0  0  0  0  0  0  0  0  0  0  0  0
   -5.5427    1.6001    0.0000 C   0  0  0  0  0  0  0  0  0  0  0  0
   -6.9282    2.4000    0.0000 Cl  0  0  0  0  0  0  0  0  0  0  0  0
   -6.9282    0.8000    0.0000 H   0  0  0  0  0  0  0  0  0  0  0  0
   -5.5427    3.1999    0.0000 H   0  0  0  0  0  0  0  0  0  0  0  0
   -4.9570   -0.5857    0.0000 H   0  0  0  0  0  0  0  0  0  0  0  0
   -3.3569    2.1856    0.0000 H   0  0  0  0  0  0  0  0  0  0  0  0
   -1.9713    1.3857    0.0000 H   0  0  0  0  0  0  0  0  0  0  0  0
   -0.8000    1.3857    0.0000 O   0  0  0  0  0  0  0  0  0  0  0  0
    0.0001    2.7712    0.0000 C   0  0  0  0  0  0  0  0  0  0  0  0
   -1.3856    3.5713    0.0000 Cl  0  0  0  0  0  0  0  0  0  0  0  0
    0.8000    4.1569    0.0000 C   0  0  0  0  0  0  0  0  0  0  0  0
    1.6000    5.5425    0.0000 C   0  0  0  0  0  0  0  0  0  0  0  0
    2.3999    6.9282    0.0000 Cl  0  0  0  0  0  0  0  0  0  0  0  0
    0.8000    6.9282    0.0000 H   0  0  0  0  0  0  0  0  0  0  0  0
    3.2000    5.5425    0.0000 H   0  0  0  0  0  0  0  0  0  0  0  0
   -0.5856    4.9570    0.0000 H   0  0  0  0  0  0  0  0  0  0  0  0
    2.1857    3.3569    0.0000 H   0  0  0  0  0  0  0  0  0  0  0  0
    1.3856    1.9713    0.0000 H   0  0  0  0  0  0  0  0  0  0  0  0
    1.3856    0.8000    0.0000 O   0  0  0  0  0  0  0  0  0  0  0  0
    2.7714    0.0000    0.0000 C   0  0  0  0  0  0  0  0  0  0  0  0
    3.5712    1.3857    0.0000 Cl  0  0  0  0  0  0  0  0  0  0  0  0
    4.1569   -0.8000    0.0000 C   0  0  0  0  0  0  0  0  0  0  0  0
    5.5427   -1.6000    0.0000 C   0  0  0  0  0  0  0  0  0  0  0  0
    6.9282   -2.4001    0.0000 Cl  0  0  0  0  0  0  0  0  0  0  0  0
    6.9282   -0.8000    0.0000 H   0  0  0  0  0  0  0  0  0  0  0  0
    5.5427   -3.2000    0.0000 H   0  0  0  0  0  0  0  0  0  0  0  0
    4.9570    0.5856    0.0000 H   0  0  0  0  0  0  0  0  0  0  0  0
    3.3569   -2.1857    0.0000 H   0  0  0  0  0  0  0  0  0  0  0  0
    1.9713   -1.3856    0.0000 H   0  0  0  0  0  0  0  0  0  0  0  0
    0.8000   -1.3856    0.0000 O   0  0  0  0  0  0  0  0  0  0  0  0
  1  2  1  0  0  0  0
  2  3  1  0  0  0  0
  3  4  1  0  0  0  0
  3  5  1  0  0  0  0
  5  6  1  0  0  0  0
  6  7  1  0  0  0  0
  6  8  1  0  0  0  0
  6  9  1  0  0  0  0
  5 10  1  0  0  0  0
  5 11  1  0  0  0  0
  3 12  1  0  0  0  0
  1 13  1  0  0  0  0
 13 14  1  0  0  0  0
 14 15  1  0  0  0  0
 14 16  1  0  0  0  0
 16 17  1  0  0  0  0
 17 18  1  0  0  0  0
 17 19  1  0  0  0  0
 17 20  1  0  0  0  0
 16 21  1  0  0  0  0
 16 22  1  0  0  0  0
 14 23  1  0  0  0  0
  1 24  1  0  0  0  0
 24 25  1  0  0  0  0
 25 26  1  0  0  0  0
 25 27  1  0  0  0  0
 27 28  1  0  0  0  0
 28 29  1  0  0  0  0
 28 30  1  0  0  0  0
 28 31  1  0  0  0  0
 27 32  1  0  0  0  0
 27 33  1  0  0  0  0
 25 34  1  0  0  0  0
  1 35  2  0  0  0  0
M  END
> <CAS>
40120-74-9

> <NAME>
TRIS(1,3-DICHLOROPROPYL) PHOSPHATE

> <preferred_name>


> <iupac>


> <SMILES>
O=P(OC(Cl)CCCl)(OC(Cl)CCCl)OC(Cl)CCCl

> <Canonical_QSARr>
O=P(OC(Cl)CCCl)(OC(Cl)CCCl)OC(Cl)CCCl

> <InChI_Code_QSARr>
InChI=1S/C9H15Cl6O4P/c10-4-1-7(13)17-20(16,18-8(14)2-5-11)19-9(15)3-6-12/h7-9H,1-6H2

> <InChI Key_QSARr>
DHNUXDYAOVSGII-UHFFFAOYSA-N

> <Salt_Solvent>
?

> <WS Temperature>


> <WS Reference>
MUIR,DCG (1984)

> <dsstox_substance_id>


> <LogMolar>
-3.6344

$$$$
40437-08-9
  -INDIGO-01081615412D

 44 43  0  0  0  0  0  0  0  0999 V2000
    1.8112    3.2142    0.0000 C   0  0  0  0  0  0  0  0  0  0  0  0
    2.6113    1.8284    0.0000 C   0  0  0  0  0  0  0  0  0  0  0  0
    1.3857    0.8000    0.0000 C   0  0  0  0  0  0  0  0  0  0  0  0
   -0.0000   -0.0000    0.0000 C   0  0  0  0  0  0  0  0  0  0  0  0
   -1.2256   -1.0284    0.0000 C   0  0  0  0  0  0  0  0  0  0  0  0
   -2.4514   -2.0570    0.0000 C   0  0  0  0  0  0  0  0  0  0  0  0
   -3.6770   -3.0854    0.0000 O   0  0  0  0  0  0  0  0  0  0  0  0
   -5.1805   -2.5381    0.0000 C   0  0  0  0  0  0  0  0  0  0  0  0
   -6.4061   -3.5666    0.0000 C   0  0  0  0  0  0  0  0  0  0  0  0
   -7.6319   -4.5950    0.0000 H   0  0  0  0  0  0  0  0  0  0  0  0
   -7.9097   -3.0193    0.0000 H   0  0  0  0  0  0  0  0  0  0  0  0
   -6.1283   -5.1423    0.0000 H   0  0  0  0  0  0  0  0  0  0  0  0
   -5.4583   -0.9624    0.0000 O   0  0  0  0  0  0  0  0  0  0  0  0
   -3.4799   -0.8313    0.0000 H   0  0  0  0  0  0  0  0  0  0  0  0
   -1.4229   -3.2826    0.0000 H   0  0  0  0  0  0  0  0  0  0  0  0
   -0.1971   -2.2541    0.0000 O   0  0  0  0  0  0  0  0  0  0  0  0
   -0.4751   -3.8299    0.0000 H   0  0  0  0  0  0  0  0  0  0  0  0
   -2.2541    0.1972    0.0000 H   0  0  0  0  0  0  0  0  0  0  0  0
   -0.8001    1.3856    0.0000 O   0  0  0  0  0  0  0  0  0  0  0  0
   -2.3756    1.6635    0.0000 C   0  0  0  0  0  0  0  0  0  0  0  0
   -2.9229    3.1670    0.0000 C   0  0  0  0  0  0  0  0  0  0  0  0
   -3.4702    4.6706    0.0000 H   0  0  0  0  0  0  0  0  0  0  0  0
   -4.4986    3.4448    0.0000 H   0  0  0  0  0  0  0  0  0  0  0  0
   -1.8944    4.3926    0.0000 H   0  0  0  0  0  0  0  0  0  0  0  0
   -3.4040    0.4379    0.0000 O   0  0  0  0  0  0  0  0  0  0  0  0
    0.8000   -1.3856    0.0000 H   0  0  0  0  0  0  0  0  0  0  0  0
    2.1857   -0.5856    0.0000 O   0  0  0  0  0  0  0  0  0  0  0  0
    3.6891   -1.1329    0.0000 C   0  0  0  0  0  0  0  0  0  0  0  0
    3.9671   -2.7085    0.0000 C   0  0  0  0  0  0  0  0  0  0  0  0
    4.2449   -4.2842    0.0000 H   0  0  0  0  0  0  0  0  0  0  0  0
    5.4704   -3.2558    0.0000 H   0  0  0  0  0  0  0  0  0  0  0  0
    2.7413   -3.7371    0.0000 H   0  0  0  0  0  0  0  0  0  0  0  0
    4.9149   -0.1045    0.0000 O   0  0  0  0  0  0  0  0  0  0  0  0
    0.5857    2.1856    0.0000 H   0  0  0  0  0  0  0  0  0  0  0  0
    3.8371    2.8570    0.0000 O   0  0  0  0  0  0  0  0  0  0  0  0
    5.4126    2.5790    0.0000 C   0  0  0  0  0  0  0  0  0  0  0  0
    6.4411    3.8048    0.0000 C   0  0  0  0  0  0  0  0  0  0  0  0
    7.4695    5.0305    0.0000 H   0  0  0  0  0  0  0  0  0  0  0  0
    8.0168    3.5269    0.0000 H   0  0  0  0  0  0  0  0  0  0  0  0
    5.8940    5.3083    0.0000 H   0  0  0  0  0  0  0  0  0  0  0  0
    5.9599    1.0756    0.0000 O   0  0  0  0  0  0  0  0  0  0  0  0
    3.6397    0.6028    0.0000 H   0  0  0  0  0  0  0  0  0  0  0  0
    2.6113    4.5998    0.0000 O   0  0  0  0  0  0  0  0  0  0  0  0
    0.2114    3.2142    0.0000 H   0  0  0  0  0  0  0  0  0  0  0  0
  1  2  1  0  0  0  0
  2  3  1  0  0  0  0
  3  4  1  0  0  0  0
  4  5  1  0  0  0  0
  5  6  1  0  0  0  0
  6  7  1  0  0  0  0
  7  8  1  0  0  0  0
  8  9  1  0  0  0  0
  9 10  1  0  0  0  0
  9 11  1  0  0  0  0
  9 12  1  0  0  0  0
  8 13  2  0  0  0  0
  6 14  1  0  0  0  0
  6 15  1  0  0  0  0
  5 16  1  0  0  0  0
 16 17  1  0  0  0  0
  5 18  1  0  0  0  0
  4 19  1  0  0  0  0
 19 20  1  0  0  0  0
 20 21  1  0  0  0  0
 21 22  1  0  0  0  0
 21 23  1  0  0  0  0
 21 24  1  0  0  0  0
 20 25  2  0  0  0  0
  4 26  1  0  0  0  0
  3 27  1  0  0  0  0
 27 28  1  0  0  0  0
 28 29  1  0  0  0  0
 29 30  1  0  0  0  0
 29 31  1  0  0  0  0
 29 32  1  0  0  0  0
 28 33  2  0  0  0  0
  3 34  1  0  0  0  0
  2 35  1  0  0  0  0
 35 36  1  0  0  0  0
 36 37  1  0  0  0  0
 37 38  1  0  0  0  0
 37 39  1  0  0  0  0
 37 40  1  0  0  0  0
 36 41  2  0  0  0  0
  2 42  1  0  0  0  0
  1 43  2  0  0  0  0
  1 44  1  0  0  0  0
M  END
> <CAS>
40437-08-9

> <NAME>
D-Glucose, 2,3,4,6-tetraacetate

> <preferred_name>


> <iupac>


> <SMILES>
CC(=O)O[C@@H](C=O)[C@@H](OC(C)=O)[C@H](OC(C)=O)[C@H](O)COC(C)=O

> <Canonical_QSARr>
CC(=O)OC(C=O)C(OC(C)=O)C(OC(C)=O)C(O)COC(C)=O

> <InChI_Code_QSARr>
InChI=1S/C14H20O10/c1-7(16)21-6-11(20)13(23-9(3)18)14(24-10(4)19)12(5-15)22-8(2)17/h5,11-14,20H,6H2,1-4H3

> <InChI Key_QSARr>
YOFGCSKEYMCZKK-UHFFFAOYSA-N

> <Salt_Solvent>
?

> <WS Temperature>
25

> <WS Reference>
BEILSTEIN

> <dsstox_substance_id>


> <LogMolar>
-1.3544

$$$$
41047-52-3
  -INDIGO-01081615412D

 22 23  0  0  0  0  0  0  0  0999 V2000
   -4.0001    1.3856    0.0000 C   0  0  0  0  0  0  0  0  0  0  0  0
   -4.8001    2.7713    0.0000 N   0  0  0  1  0  0  0  0  0  0  0  0
   -6.4000    2.7713    0.0000 C   0  0  0  0  0  0  0  0  0  0  0  0
   -7.2000    4.1569    0.0000 H   0  0  0  0  0  0  0  0  0  0  0  0
   -7.2000    1.3856    0.0000 C   0  0  0  0  0  0  0  0  0  0  0  0
   -8.8000    1.3856    0.0000 H   0  0  0  0  0  0  0  0  0  0  0  0
   -6.4000   -0.0000    0.0000 N   0  0  0  1  0  0  0  0  0  0  0  0
   -4.8001   -0.0000    0.0000 C   0  0  0  0  0  0  0  0  0  0  0  0
   -4.0001   -1.3856    0.0000 C   0  0  0  0  0  0  0  0  0  0  0  0
   -4.8001   -2.7713    0.0000 H   0  0  0  0  0  0  0  0  0  0  0  0
   -2.3999   -1.3856    0.0000 N   0  0  0  1  0  0  0  0  0  0  0  0
   -1.5999   -0.0000    0.0000 C   0  0  0  0  0  0  0  0  0  0  0  0
    0.0000   -0.0000    0.0000 N   0  0  0  0  0  0  0  0  0  0  0  0
    0.8000   -1.3856    0.0000 C   0  0  0  0  0  0  0  0  0  0  0  0
    1.6000   -2.7713    0.0000 H   0  0  0  0  0  0  0  0  0  0  0  0
    2.4000   -1.3856    0.0000 H   0  0  0  0  0  0  0  0  0  0  0  0
    0.0000   -2.7713    0.0000 H   0  0  0  0  0  0  0  0  0  0  0  0
    0.8000    1.3856    0.0000 C   0  0  0  0  0  0  0  0  0  0  0  0
    1.6000    2.7713    0.0000 H   0  0  0  0  0  0  0  0  0  0  0  0
    2.4000    1.3856    0.0000 H   0  0  0  0  0  0  0  0  0  0  0  0
    0.0000    2.7713    0.0000 H   0  0  0  0  0  0  0  0  0  0  0  0
   -2.3999    1.3856    0.0000 N   0  0  0  1  0  0  0  0  0  0  0  0
  1  2  4  0  0  0  0
  2  3  4  0  0  0  0
  3  4  1  0  0  0  0
  3  5  4  0  0  0  0
  5  6  1  0  0  0  0
  5  7  4  0  0  0  0
  7  8  4  0  0  0  0
  8  1  4  0  0  0  0
  8  9  4  0  0  0  0
  9 10  1  0  0  0  0
  9 11  4  0  0  0  0
 11 12  4  0  0  0  0
 12 13  1  0  0  0  0
 13 14  1  0  0  0  0
 14 15  1  0  0  0  0
 14 16  1  0  0  0  0
 14 17  1  0  0  0  0
 13 18  1  0  0  0  0
 18 19  1  0  0  0  0
 18 20  1  0  0  0  0
 18 21  1  0  0  0  0
 12 22  4  0  0  0  0
 22  1  4  0  0  0  0
M  END
> <CAS>
41047-52-3

> <NAME>
2-Pteridinamine, N,N-dimethyl-

> <preferred_name>


> <iupac>


> <SMILES>
CN(C)c1[n]c2[n]cc[n]c2c[n]1

> <Canonical_QSARr>
CN(C)c1[n]c2[n]cc[n]c2c[n]1

> <InChI_Code_QSARr>
InChI=1S/C8H9N5/c1-13(2)8-11-5-6-7(12-8)10-4-3-9-6/h3-5H,1-2H3

> <InChI Key_QSARr>
JXKUCNDDDQEMSS-UHFFFAOYSA-N

> <Salt_Solvent>
?

> <WS Temperature>
20

> <WS Reference>
BEILSTEIN

> <dsstox_substance_id>


> <LogMolar>
0.3586

$$$$
41295-28-7
  -INDIGO-01081615412D

 34 35  0  0  0  0  0  0  0  0999 V2000
    2.4000    1.3857    0.0000 O   0  0  0  0  0  0  0  0  0  0  0  0
    3.1999    2.7713    0.0000 C   0  0  0  0  0  0  0  0  0  0  0  0
    4.8000    2.7713    0.0000 H   0  0  0  0  0  0  0  0  0  0  0  0
    4.0001    4.1570    0.0000 H   0  0  0  0  0  0  0  0  0  0  0  0
    4.0001    1.3857    0.0000 H   0  0  0  0  0  0  0  0  0  0  0  0
    0.8000    1.3857    0.0000 C   0  0  0  0  0  0  0  0  0  0  0  0
    0.0001    2.7713    0.0000 C   0  0  0  0  0  0  0  0  0  0  0  0
    0.8000    4.1570    0.0000 H   0  0  0  0  0  0  0  0  0  0  0  0
   -1.6000    2.7713    0.0000 C   0  0  0  0  0  0  0  0  0  0  0  0
   -2.3999    4.1570    0.0000 H   0  0  0  0  0  0  0  0  0  0  0  0
   -2.3999    1.3857    0.0000 C   0  0  0  0  0  0  0  0  0  0  0  0
   -4.0000    1.3857    0.0000 C   0  0  0  0  0  0  0  0  0  0  0  0
   -5.3857    2.1856    0.0000 C   0  0  0  0  0  0  0  0  0  0  0  0
   -5.3857    3.7856    0.0000 C   0  0  0  0  0  0  0  0  0  0  0  0
   -4.0000    4.5856    0.0000 H   0  0  0  0  0  0  0  0  0  0  0  0
   -6.7712    4.5856    0.0000 C   0  0  0  0  0  0  0  0  0  0  0  0
   -6.7712    6.1856    0.0000 H   0  0  0  0  0  0  0  0  0  0  0  0
   -8.1570    3.7856    0.0000 C   0  0  0  0  0  0  0  0  0  0  0  0
   -9.5425    4.5856    0.0000 H   0  0  0  0  0  0  0  0  0  0  0  0
   -8.1570    2.1856    0.0000 C   0  0  0  0  0  0  0  0  0  0  0  0
   -9.5425    1.3857    0.0000 C   0  0  0  0  0  0  0  0  0  0  0  0
  -10.9282    0.5857    0.0000 H   0  0  0  0  0  0  0  0  0  0  0  0
  -10.9282    2.1856    0.0000 H   0  0  0  0  0  0  0  0  0  0  0  0
   -9.5425   -0.2144    0.0000 H   0  0  0  0  0  0  0  0  0  0  0  0
   -6.7712    1.3857    0.0000 C   0  0  0  0  0  0  0  0  0  0  0  0
   -6.7712   -0.2144    0.0000 H   0  0  0  0  0  0  0  0  0  0  0  0
   -4.5472   -0.1179    0.0000 O   0  0  0  0  0  0  0  0  0  0  0  0
   -1.6000    0.0001    0.0000 C   0  0  0  0  0  0  0  0  0  0  0  0
   -2.3999   -1.3857    0.0000 H   0  0  0  0  0  0  0  0  0  0  0  0
    0.0001    0.0001    0.0000 C   0  0  0  0  0  0  0  0  0  0  0  0
    0.8000   -1.3857    0.0000 C   0  0  0  0  0  0  0  0  0  0  0  0
    1.6001   -2.7713    0.0000 H   0  0  0  0  0  0  0  0  0  0  0  0
    2.4000   -1.3857    0.0000 H   0  0  0  0  0  0  0  0  0  0  0  0
    0.0001   -2.7713    0.0000 H   0  0  0  0  0  0  0  0  0  0  0  0
  1  2  1  0  0  0  0
  2  3  1  0  0  0  0
  2  4  1  0  0  0  0
  2  5  1  0  0  0  0
  1  6  1  0  0  0  0
  6  7  4  0  0  0  0
  7  8  1  0  0  0  0
  7  9  4  0  0  0  0
  9 10  1  0  0  0  0
  9 11  4  0  0  0  0
 11 12  1  0  0  0  0
 12 13  1  0  0  0  0
 13 14  4  0  0  0  0
 14 15  1  0  0  0  0
 14 16  4  0  0  0  0
 16 17  1  0  0  0  0
 16 18  4  0  0  0  0
 18 19  1  0  0  0  0
 18 20  4  0  0  0  0
 20 21  1  0  0  0  0
 21 22  1  0  0  0  0
 21 23  1  0  0  0  0
 21 24  1  0  0  0  0
 20 25  4  0  0  0  0
 25 13  4  0  0  0  0
 25 26  1  0  0  0  0
 12 27  2  0  0  0  0
 11 28  4  0  0  0  0
 28 29  1  0  0  0  0
 28 30  4  0  0  0  0
 30  6  4  0  0  0  0
 30 31  1  0  0  0  0
 31 32  1  0  0  0  0
 31 33  1  0  0  0  0
 31 34  1  0  0  0  0
M  END
> <CAS>
41295-28-7

> <NAME>
4-Methoxy-3,3'-dimethylbenzophenone

> <preferred_name>
Methoxyphenone

> <iupac>
(4-methoxy-3-methylphenyl)-(3-methylphenyl)methanone

> <SMILES>
Cc1cc(ccc1)C(=O)c1cc(C)c(cc1)OC

> <Canonical_QSARr>
Cc1cc(ccc1)C(=O)c1cc(C)c(cc1)OC

> <InChI_Code_QSARr>
InChI=1S/C16H16O2/c1-11-5-4-6-13(9-11)16(17)14-7-8-15(18-3)12(2)10-14/h4-10H,1-3H3

> <InChI Key_QSARr>
BWPYBAJTDILQPY-UHFFFAOYSA-N

> <Salt_Solvent>
?

> <WS Temperature>
20

> <WS Reference>
YALKOWSKY,SH & DANNENFELSER,RM (1992)

> <dsstox_substance_id>
DTXSID80194279

> <LogMolar>
-5.0797

$$$$
41464-41-9
  -INDIGO-01081615412D

 22 23  0  0  0  0  0  0  0  0999 V2000
    0.0001    0.0000    0.0000 C   0  0  0  0  0  0  0  0  0  0  0  0
    0.8001   -1.3856    0.0000 C   0  0  0  0  0  0  0  0  0  0  0  0
    0.0001   -2.7713    0.0000 H   0  0  0  0  0  0  0  0  0  0  0  0
    2.4000   -1.3856    0.0000 C   0  0  0  0  0  0  0  0  0  0  0  0
    3.2000   -2.7713    0.0000 Cl  0  0  0  0  0  0  0  0  0  0  0  0
    3.2000    0.0000    0.0000 C   0  0  0  0  0  0  0  0  0  0  0  0
    4.8000    0.0000    0.0000 H   0  0  0  0  0  0  0  0  0  0  0  0
    2.4000    1.3856    0.0000 C   0  0  0  0  0  0  0  0  0  0  0  0
    3.2000    2.7713    0.0000 H   0  0  0  0  0  0  0  0  0  0  0  0
    0.8001    1.3856    0.0000 C   0  0  0  0  0  0  0  0  0  0  0  0
    0.0001    2.7713    0.0000 Cl  0  0  0  0  0  0  0  0  0  0  0  0
   -1.6001   -0.0000    0.0000 C   0  0  0  0  0  0  0  0  0  0  0  0
   -2.4001    1.3856    0.0000 C   0  0  0  0  0  0  0  0  0  0  0  0
   -1.6001    2.7713    0.0000 Cl  0  0  0  0  0  0  0  0  0  0  0  0
   -4.0000    1.3856    0.0000 C   0  0  0  0  0  0  0  0  0  0  0  0
   -4.8000    2.7713    0.0000 H   0  0  0  0  0  0  0  0  0  0  0  0
   -4.8000   -0.0000    0.0000 C   0  0  0  0  0  0  0  0  0  0  0  0
   -6.4000   -0.0000    0.0000 H   0  0  0  0  0  0  0  0  0  0  0  0
   -4.0000   -1.3856    0.0000 C   0  0  0  0  0  0  0  0  0  0  0  0
   -4.8000   -2.7713    0.0000 H   0  0  0  0  0  0  0  0  0  0  0  0
   -2.4001   -1.3856    0.0000 C   0  0  0  0  0  0  0  0  0  0  0  0
   -1.6001   -2.7713    0.0000 Cl  0  0  0  0  0  0  0  0  0  0  0  0
  1  2  4  0  0  0  0
  2  3  1  0  0  0  0
  2  4  4  0  0  0  0
  4  5  1  0  0  0  0
  4  6  4  0  0  0  0
  6  7  1  0  0  0  0
  6  8  4  0  0  0  0
  8  9  1  0  0  0  0
  8 10  4  0  0  0  0
 10  1  4  0  0  0  0
 10 11  1  0  0  0  0
  1 12  1  0  0  0  0
 12 13  4  0  0  0  0
 13 14  1  0  0  0  0
 13 15  4  0  0  0  0
 15 16  1  0  0  0  0
 15 17  4  0  0  0  0
 17 18  1  0  0  0  0
 17 19  4  0  0  0  0
 19 20  1  0  0  0  0
 19 21  4  0  0  0  0
 21 12  4  0  0  0  0
 21 22  1  0  0  0  0
M  END
> <CAS>
41464-41-9

> <NAME>
2,2',5,6'-TETRACHLOROBIPHENYL

> <preferred_name>
2,2',5,6'-Tetrachlorobiphenyl

> <iupac>
1,4-dichloro-2-(2,6-dichlorophenyl)benzene

> <SMILES>
Clc1cc(-c2c(Cl)cccc2Cl)c(Cl)cc1

> <Canonical_QSARr>
Clc1cc(-c2c(Cl)cccc2Cl)c(Cl)cc1

> <InChI_Code_QSARr>
InChI=1S/C12H6Cl4/c13-7-4-5-9(14)8(6-7)12-10(15)2-1-3-11(12)16/h1-6H

> <InChI Key_QSARr>
SFTUSTXGTCCSHX-UHFFFAOYSA-N

> <Salt_Solvent>
?

> <WS Temperature>
25

> <WS Reference>
YALKOWSKY,SH & DANNENFELSER,RM (1992)

> <dsstox_substance_id>
DTXSID3073509

> <LogMolar>
-6.7879

$$$$
41476-09-9
  -INDIGO-01081615412D

 32 31  0  0  0  0  0  0  0  0999 V2000
   -6.4000   -0.0000    0.0000 C   0  0  0  0  0  0  0  0  0  0  0  0
   -7.2001    1.3856    0.0000 O   0  0  0  0  0  0  0  0  0  0  0  0
   -7.2001   -1.3856    0.0000 S   0  0  0  0  0  0  0  0  0  0  0  0
   -8.8000   -1.3856    0.0000 H   0  0  0  0  0  0  0  0  0  0  0  0
   -4.8000   -0.0000    0.0000 C   0  0  0  0  0  0  0  0  0  0  0  0
   -3.2001    0.0000    0.0000 C   0  0  0  0  0  0  0  0  0  0  0  0
   -1.5999    0.0000    0.0000 C   0  0  0  0  0  0  0  0  0  0  0  0
    0.0000    0.0000    0.0000 C   0  0  0  0  0  0  0  0  0  0  0  0
    1.6000    0.0000    0.0000 C   0  0  0  0  0  0  0  0  0  0  0  0
    3.1999    0.0000    0.0000 C   0  0  0  0  0  0  0  0  0  0  0  0
    4.8001    0.0000    0.0000 C   0  0  0  0  0  0  0  0  0  0  0  0
    6.4000    0.0000    0.0000 C   0  0  0  0  0  0  0  0  0  0  0  0
    8.0000    0.0000    0.0000 C   0  0  0  0  0  0  0  0  0  0  0  0
    8.8001   -1.3856    0.0000 O   0  0  0  0  0  0  0  0  0  0  0  0
    8.8001    1.3856    0.0000 S   0  0  0  0  0  0  0  0  0  0  0  0
   10.4000    1.3856    0.0000 H   0  0  0  0  0  0  0  0  0  0  0  0
    6.4000   -1.6000    0.0000 H   0  0  0  0  0  0  0  0  0  0  0  0
    6.4000    1.6000    0.0000 H   0  0  0  0  0  0  0  0  0  0  0  0
    4.8001    1.6000    0.0000 H   0  0  0  0  0  0  0  0  0  0  0  0
    4.8001   -1.6000    0.0000 H   0  0  0  0  0  0  0  0  0  0  0  0
    3.1999   -1.6000    0.0000 H   0  0  0  0  0  0  0  0  0  0  0  0
    3.1999    1.6000    0.0000 H   0  0  0  0  0  0  0  0  0  0  0  0
    1.6000   -1.6000    0.0000 H   0  0  0  0  0  0  0  0  0  0  0  0
    1.6000    1.6000    0.0000 H   0  0  0  0  0  0  0  0  0  0  0  0
    0.0000    1.6000    0.0000 H   0  0  0  0  0  0  0  0  0  0  0  0
    0.0000   -1.6000    0.0000 H   0  0  0  0  0  0  0  0  0  0  0  0
   -1.5999   -1.6000    0.0000 H   0  0  0  0  0  0  0  0  0  0  0  0
   -1.5999    1.6000    0.0000 H   0  0  0  0  0  0  0  0  0  0  0  0
   -3.2001    1.6000    0.0000 H   0  0  0  0  0  0  0  0  0  0  0  0
   -3.2001   -1.6000    0.0000 H   0  0  0  0  0  0  0  0  0  0  0  0
   -4.8000   -1.6000    0.0000 H   0  0  0  0  0  0  0  0  0  0  0  0
   -4.8000    1.6000    0.0000 H   0  0  0  0  0  0  0  0  0  0  0  0
  1  2  2  0  0  0  0
  1  3  1  0  0  0  0
  3  4  1  0  0  0  0
  1  5  1  0  0  0  0
  5  6  1  0  0  0  0
  6  7  1  0  0  0  0
  7  8  1  0  0  0  0
  8  9  1  0  0  0  0
  9 10  1  0  0  0  0
 10 11  1  0  0  0  0
 11 12  1  0  0  0  0
 12 13  1  0  0  0  0
 13 14  2  0  0  0  0
 13 15  1  0  0  0  0
 15 16  1  0  0  0  0
 12 17  1  0  0  0  0
 12 18  1  0  0  0  0
 11 19  1  0  0  0  0
 11 20  1  0  0  0  0
 10 21  1  0  0  0  0
 10 22  1  0  0  0  0
  9 23  1  0  0  0  0
  9 24  1  0  0  0  0
  8 25  1  0  0  0  0
  8 26  1  0  0  0  0
  7 27  1  0  0  0  0
  7 28  1  0  0  0  0
  6 29  1  0  0  0  0
  6 30  1  0  0  0  0
  5 31  1  0  0  0  0
  5 32  1  0  0  0  0
M  END
> <CAS>
41476-09-9

> <NAME>
Decanebis(thioic) acid

> <preferred_name>


> <iupac>


> <SMILES>
O=C(S)CCCCCCCCC(=O)S

> <Canonical_QSARr>
O=C(S)CCCCCCCCC(=O)S

> <InChI_Code_QSARr>
InChI=1S/C10H18O2S2/c11-9(13)7-5-3-1-2-4-6-8-10(12)14/h1-8H2,(H,11,13)(H,12,14)

> <InChI Key_QSARr>
OUADDINWGRXMJO-UHFFFAOYSA-N

> <Salt_Solvent>
?

> <WS Temperature>
26

> <WS Reference>
BEILSTEIN

> <dsstox_substance_id>


> <LogMolar>
-3.0689

$$$$
41814-78-2
  -INDIGO-01081615412D

 20 22  0  0  0  0  0  0  0  0999 V2000
    1.5650   -0.3327    0.0000 N   0  0  0  1  0  0  0  0  0  0  0  0
    3.0267    0.3181    0.0000 C   0  0  0  0  0  0  0  0  0  0  0  0
    3.3593    1.8831    0.0000 H   0  0  0  0  0  0  0  0  0  0  0  0
    4.0973   -0.8709    0.0000 N   0  0  0  1  0  0  0  0  0  0  0  0
    3.2973   -2.2565    0.0000 N   0  0  0  1  0  0  0  0  0  0  0  0
    1.7323   -1.9238    0.0000 C   0  0  0  0  0  0  0  0  0  0  0  0
    0.2707   -2.5746    0.0000 S   0  0  0  1  0  0  0  0  0  0  0  0
   -0.8000   -1.3856    0.0000 C   0  0  0  0  0  0  0  0  0  0  0  0
   -2.4000   -1.3856    0.0000 C   0  0  0  0  0  0  0  0  0  0  0  0
   -3.2000    0.0000    0.0000 C   0  0  0  0  0  0  0  0  0  0  0  0
   -2.4000    1.3856    0.0000 C   0  0  0  0  0  0  0  0  0  0  0  0
   -0.8000    1.3856    0.0000 C   0  0  0  0  0  0  0  0  0  0  0  0
   -0.0001    2.7713    0.0000 C   0  0  0  0  0  0  0  0  0  0  0  0
    0.8000    4.1569    0.0000 H   0  0  0  0  0  0  0  0  0  0  0  0
   -0.8000    4.1569    0.0000 H   0  0  0  0  0  0  0  0  0  0  0  0
    1.5999    2.7713    0.0000 H   0  0  0  0  0  0  0  0  0  0  0  0
   -0.0001    0.0000    0.0000 C   0  0  0  0  0  0  0  0  0  0  0  0
   -3.2000    2.7713    0.0000 H   0  0  0  0  0  0  0  0  0  0  0  0
   -4.8000    0.0000    0.0000 H   0  0  0  0  0  0  0  0  0  0  0  0
   -3.2000   -2.7713    0.0000 H   0  0  0  0  0  0  0  0  0  0  0  0
  1  2  4  0  0  0  0
  2  3  1  0  0  0  0
  2  4  4  0  0  0  0
  4  5  4  0  0  0  0
  5  6  4  0  0  0  0
  6  1  4  0  0  0  0
  6  7  4  0  0  0  0
  7  8  4  0  0  0  0
  8  9  4  0  0  0  0
  9 10  4  0  0  0  0
 10 11  4  0  0  0  0
 11 12  4  0  0  0  0
 12 13  1  0  0  0  0
 13 14  1  0  0  0  0
 13 15  1  0  0  0  0
 13 16  1  0  0  0  0
 12 17  4  0  0  0  0
 17  1  4  0  0  0  0
 17  8  4  0  0  0  0
 11 18  1  0  0  0  0
 10 19  1  0  0  0  0
  9 20  1  0  0  0  0
M  END
> <CAS>
41814-78-2

> <NAME>
TRICYCLAZOLE

> <preferred_name>
2,7,8,9-Tricyclazole

> <iupac>
5-methyl[1,2,4]triazolo[3,4-b][1,3]benzothiazole

> <SMILES>
Cc1cccc2[s]c3[n][n]c[n]3c21

> <Canonical_QSARr>
Cc1cccc2[s]c3[n][n]c[n]3c21

> <InChI_Code_QSARr>
InChI=1S/C9H7N3S/c1-6-3-2-4-7-8(6)12-5-10-11-9(12)13-7/h2-5H,1H3

> <InChI Key_QSARr>
DQJCHOQLCLEDLL-UHFFFAOYSA-N

> <Salt_Solvent>
?

> <WS Temperature>
25

> <WS Reference>
YALKOWSKY,SH & DANNENFELSER,RM (1992)

> <dsstox_substance_id>
DTXSID7037478

> <LogMolar>
-2.0729

$$$$
42399-41-7
  -INDIGO-01081615412D

 55 57  0  0  0  0  0  0  0  0999 V2000
   -9.0070   -1.4550    0.0000 C   0  0  0  0  0  0  0  0  0  0  0  0
   -7.9188   -2.6280    0.0000 N   0  0  0  0  0  0  0  0  0  0  0  0
   -6.3589   -2.2719    0.0000 C   0  0  0  0  0  0  0  0  0  0  0  0
   -4.7989   -1.9159    0.0000 C   0  0  0  0  0  0  0  0  0  0  0  0
   -3.2393   -1.5599    0.0000 N   0  0  0  0  0  0  0  0  0  0  0  0
   -2.8831   -0.0001    0.0000 C   0  0  0  0  0  0  0  0  0  0  0  0
   -4.1342    0.9975    0.0000 O   0  0  0  0  0  0  0  0  0  0  0  0
   -1.4415    0.6943    0.0000 C   0  0  0  0  0  0  0  0  0  0  0  0
   -2.4390    1.9451    0.0000 O   0  0  0  0  0  0  0  0  0  0  0  0
   -2.3991    3.5447    0.0000 C   0  0  0  0  0  0  0  0  0  0  0  0
   -0.9942    4.3098    0.0000 O   0  0  0  0  0  0  0  0  0  0  0  0
   -3.7645    4.3789    0.0000 C   0  0  0  0  0  0  0  0  0  0  0  0
   -5.1298    5.2132    0.0000 H   0  0  0  0  0  0  0  0  0  0  0  0
   -5.1697    3.6138    0.0000 H   0  0  0  0  0  0  0  0  0  0  0  0
   -3.7246    5.9784    0.0000 H   0  0  0  0  0  0  0  0  0  0  0  0
   -0.4439    1.9451    0.0000 H   0  0  0  0  0  0  0  0  0  0  0  0
    0.0001   -0.0001    0.0000 C   0  0  0  0  0  0  0  0  0  0  0  0
    1.0883    1.1729    0.0000 C   0  0  0  0  0  0  0  0  0  0  0  0
    2.6482    0.8168    0.0000 C   0  0  0  0  0  0  0  0  0  0  0  0
    3.1198   -0.7120    0.0000 H   0  0  0  0  0  0  0  0  0  0  0  0
    3.7364    1.9898    0.0000 C   0  0  0  0  0  0  0  0  0  0  0  0
    5.2963    1.6336    0.0000 H   0  0  0  0  0  0  0  0  0  0  0  0
    3.2648    3.5186    0.0000 C   0  0  0  0  0  0  0  0  0  0  0  0
    4.3532    4.6914    0.0000 O   0  0  0  0  0  0  0  0  0  0  0  0
    5.9129    4.3355    0.0000 C   0  0  0  0  0  0  0  0  0  0  0  0
    7.0013    5.5083    0.0000 H   0  0  0  0  0  0  0  0  0  0  0  0
    7.4729    3.9795    0.0000 H   0  0  0  0  0  0  0  0  0  0  0  0
    5.4414    5.8645    0.0000 H   0  0  0  0  0  0  0  0  0  0  0  0
    1.7049    3.8748    0.0000 C   0  0  0  0  0  0  0  0  0  0  0  0
    1.2333    5.4036    0.0000 H   0  0  0  0  0  0  0  0  0  0  0  0
    0.6167    2.7017    0.0000 C   0  0  0  0  0  0  0  0  0  0  0  0
   -0.9432    3.0579    0.0000 H   0  0  0  0  0  0  0  0  0  0  0  0
    1.6000   -0.0001    0.0000 H   0  0  0  0  0  0  0  0  0  0  0  0
    0.3560   -1.5599    0.0000 S   0  0  0  0  0  0  0  0  0  0  0  0
   -0.6415   -2.8108    0.0000 C   0  0  0  0  0  0  0  0  0  0  0  0
    0.1584   -4.1964    0.0000 C   0  0  0  0  0  0  0  0  0  0  0  0
   -0.6415   -5.5821    0.0000 C   0  0  0  0  0  0  0  0  0  0  0  0
   -2.2417   -5.5821    0.0000 C   0  0  0  0  0  0  0  0  0  0  0  0
   -3.0416   -4.1964    0.0000 C   0  0  0  0  0  0  0  0  0  0  0  0
   -4.6173   -4.4743    0.0000 H   0  0  0  0  0  0  0  0  0  0  0  0
   -2.2417   -2.8108    0.0000 C   0  0  0  0  0  0  0  0  0  0  0  0
   -3.0416   -6.9677    0.0000 H   0  0  0  0  0  0  0  0  0  0  0  0
    0.1584   -6.9677    0.0000 H   0  0  0  0  0  0  0  0  0  0  0  0
    1.7585   -4.1964    0.0000 H   0  0  0  0  0  0  0  0  0  0  0  0
   -4.4430   -3.4757    0.0000 H   0  0  0  0  0  0  0  0  0  0  0  0
   -5.1551   -0.3561    0.0000 H   0  0  0  0  0  0  0  0  0  0  0  0
   -6.0030   -3.8319    0.0000 H   0  0  0  0  0  0  0  0  0  0  0  0
   -6.7148   -0.7120    0.0000 H   0  0  0  0  0  0  0  0  0  0  0  0
   -8.3904   -4.1569    0.0000 C   0  0  0  0  0  0  0  0  0  0  0  0
   -8.8619   -5.6859    0.0000 H   0  0  0  0  0  0  0  0  0  0  0  0
   -9.9503   -4.5128    0.0000 H   0  0  0  0  0  0  0  0  0  0  0  0
   -7.3022   -5.3297    0.0000 H   0  0  0  0  0  0  0  0  0  0  0  0
  -10.0954   -0.2822    0.0000 H   0  0  0  0  0  0  0  0  0  0  0  0
  -10.5669   -1.8112    0.0000 H   0  0  0  0  0  0  0  0  0  0  0  0
   -8.5355    0.0738    0.0000 H   0  0  0  0  0  0  0  0  0  0  0  0
  1  2  1  0  0  0  0
  2  3  1  0  0  0  0
  3  4  1  0  0  0  0
  4  5  1  0  0  0  0
  5  6  1  0  0  0  0
  6  7  2  0  0  0  0
  6  8  1  0  0  0  0
  8  9  1  0  0  0  0
  9 10  1  0  0  0  0
 10 11  2  0  0  0  0
 10 12  1  0  0  0  0
 12 13  1  0  0  0  0
 12 14  1  0  0  0  0
 12 15  1  0  0  0  0
  8 16  1  0  0  0  0
  8 17  1  0  0  0  0
 17 18  1  0  0  0  0
 18 19  4  0  0  0  0
 19 20  1  0  0  0  0
 19 21  4  0  0  0  0
 21 22  1  0  0  0  0
 21 23  4  0  0  0  0
 23 24  1  0  0  0  0
 24 25  1  0  0  0  0
 25 26  1  0  0  0  0
 25 27  1  0  0  0  0
 25 28  1  0  0  0  0
 23 29  4  0  0  0  0
 29 30  1  0  0  0  0
 29 31  4  0  0  0  0
 31 18  4  0  0  0  0
 31 32  1  0  0  0  0
 17 33  1  0  0  0  0
 17 34  1  0  0  0  0
 34 35  1  0  0  0  0
 35 36  4  0  0  0  0
 36 37  4  0  0  0  0
 37 38  4  0  0  0  0
 38 39  4  0  0  0  0
 39 40  1  0  0  0  0
 39 41  4  0  0  0  0
 41  5  1  0  0  0  0
 41 35  4  0  0  0  0
 38 42  1  0  0  0  0
 37 43  1  0  0  0  0
 36 44  1  0  0  0  0
  4 45  1  0  0  0  0
  4 46  1  0  0  0  0
  3 47  1  0  0  0  0
  3 48  1  0  0  0  0
  2 49  1  0  0  0  0
 49 50  1  0  0  0  0
 49 51  1  0  0  0  0
 49 52  1  0  0  0  0
  1 53  1  0  0  0  0
  1 54  1  0  0  0  0
  1 55  1  0  0  0  0
M  END
> <CAS>
42399-41-7

> <NAME>
Diltiazem

> <preferred_name>
Diltiazem

> <iupac>
(2S,3S)-5-[2-(dimethylamino)ethyl]-2-(4-methoxyphenyl)-4-oxo-2,3,4,5-tetrahydro-1,5-benzothiazepin-3-yl acetate

> <SMILES>
CN(C)CCN1C(=O)[C@H](OC(C)=O)[C@@H](Sc2ccccc12)c1ccc(cc1)OC

> <Canonical_QSARr>
CN(C)CCN1C(=O)C(OC(C)=O)C(Sc2ccccc12)c1ccc(cc1)OC

> <InChI_Code_QSARr>
InChI=1S/C22H26N2O4S/c1-15(25)28-20-21(16-9-11-17(27-4)12-10-16)29-19-8-6-5-7-18(19)24(22(20)26)14-13-23(2)3/h5-12,20-21H,13-14H2,1-4H3

> <InChI Key_QSARr>
HSUGRBWQSSZJOP-UHFFFAOYSA-N

> <Salt_Solvent>
?

> <WS Temperature>
25

> <WS Reference>
MCFARLAND,JW ET AL. (2001)

> <dsstox_substance_id>
DTXSID9022940

> <LogMolar>
-2.9501

$$$$
42609-52-9
  -INDIGO-01081615412D

 40 41  0  0  0  0  0  0  0  0999 V2000
  -10.1857   -2.1857    0.0000 C   0  0  0  0  0  0  0  0  0  0  0  0
   -8.5857   -2.1857    0.0000 C   0  0  0  0  0  0  0  0  0  0  0  0
   -7.7857   -3.5712    0.0000 C   0  0  0  0  0  0  0  0  0  0  0  0
   -8.5857   -4.9569    0.0000 H   0  0  0  0  0  0  0  0  0  0  0  0
   -6.1857   -3.5712    0.0000 C   0  0  0  0  0  0  0  0  0  0  0  0
   -5.3857   -4.9569    0.0000 H   0  0  0  0  0  0  0  0  0  0  0  0
   -5.3857   -2.1857    0.0000 C   0  0  0  0  0  0  0  0  0  0  0  0
   -3.7858   -2.1857    0.0000 N   0  0  0  0  0  0  0  0  0  0  0  0
   -2.9855   -0.8000    0.0000 C   0  0  0  0  0  0  0  0  0  0  0  0
   -4.0140    0.4257    0.0000 O   0  0  0  0  0  0  0  0  0  0  0  0
   -3.4669    1.9292    0.0000 H   0  0  0  0  0  0  0  0  0  0  0  0
   -1.3855   -0.8000    0.0000 N   0  0  0  0  0  0  0  0  0  0  0  0
    0.0001   -0.0000    0.0000 C   0  0  0  0  0  0  0  0  0  0  0  0
    0.8001   -1.3857    0.0000 C   0  0  0  0  0  0  0  0  0  0  0  0
    0.0001   -2.7712    0.0000 C   0  0  0  0  0  0  0  0  0  0  0  0
   -1.5999   -2.7712    0.0000 H   0  0  0  0  0  0  0  0  0  0  0  0
    0.8001   -4.1569    0.0000 C   0  0  0  0  0  0  0  0  0  0  0  0
    0.0001   -5.5426    0.0000 H   0  0  0  0  0  0  0  0  0  0  0  0
    2.4000   -4.1569    0.0000 C   0  0  0  0  0  0  0  0  0  0  0  0
    3.2000   -5.5426    0.0000 H   0  0  0  0  0  0  0  0  0  0  0  0
    3.2000   -2.7712    0.0000 C   0  0  0  0  0  0  0  0  0  0  0  0
    4.8000   -2.7712    0.0000 H   0  0  0  0  0  0  0  0  0  0  0  0
    2.4000   -1.3857    0.0000 C   0  0  0  0  0  0  0  0  0  0  0  0
    3.2000   -0.0000    0.0000 H   0  0  0  0  0  0  0  0  0  0  0  0
   -0.7999    1.3856    0.0000 C   0  0  0  0  0  0  0  0  0  0  0  0
   -1.8284    2.6114    0.0000 H   0  0  0  0  0  0  0  0  0  0  0  0
   -2.3756    1.1079    0.0000 H   0  0  0  0  0  0  0  0  0  0  0  0
   -0.2528    2.8891    0.0000 H   0  0  0  0  0  0  0  0  0  0  0  0
    1.3857    0.8000    0.0000 C   0  0  0  0  0  0  0  0  0  0  0  0
    2.8892    1.3473    0.0000 H   0  0  0  0  0  0  0  0  0  0  0  0
    1.6636    2.3757    0.0000 H   0  0  0  0  0  0  0  0  0  0  0  0
    0.3572    2.0257    0.0000 H   0  0  0  0  0  0  0  0  0  0  0  0
   -2.9855   -3.5712    0.0000 H   0  0  0  0  0  0  0  0  0  0  0  0
   -6.1857   -0.8000    0.0000 C   0  0  0  0  0  0  0  0  0  0  0  0
   -5.3857    0.5856    0.0000 H   0  0  0  0  0  0  0  0  0  0  0  0
   -7.7857   -0.8000    0.0000 C   0  0  0  0  0  0  0  0  0  0  0  0
   -8.5857    0.5856    0.0000 H   0  0  0  0  0  0  0  0  0  0  0  0
  -11.7856   -2.1857    0.0000 H   0  0  0  0  0  0  0  0  0  0  0  0
  -10.9857   -3.5712    0.0000 H   0  0  0  0  0  0  0  0  0  0  0  0
  -10.9857   -0.8000    0.0000 H   0  0  0  0  0  0  0  0  0  0  0  0
  1  2  1  0  0  0  0
  2  3  4  0  0  0  0
  3  4  1  0  0  0  0
  3  5  4  0  0  0  0
  5  6  1  0  0  0  0
  5  7  4  0  0  0  0
  7  8  1  0  0  0  0
  8  9  1  0  0  0  0
  9 10  1  0  0  0  0
 10 11  1  0  0  0  0
  9 12  2  0  0  0  0
 12 13  1  0  0  0  0
 13 14  1  0  0  0  0
 14 15  4  0  0  0  0
 15 16  1  0  0  0  0
 15 17  4  0  0  0  0
 17 18  1  0  0  0  0
 17 19  4  0  0  0  0
 19 20  1  0  0  0  0
 19 21  4  0  0  0  0
 21 22  1  0  0  0  0
 21 23  4  0  0  0  0
 23 14  4  0  0  0  0
 23 24  1  0  0  0  0
 13 25  1  0  0  0  0
 25 26  1  0  0  0  0
 25 27  1  0  0  0  0
 25 28  1  0  0  0  0
 13 29  1  0  0  0  0
 29 30  1  0  0  0  0
 29 31  1  0  0  0  0
 29 32  1  0  0  0  0
  8 33  1  0  0  0  0
  7 34  4  0  0  0  0
 34 35  1  0  0  0  0
 34 36  4  0  0  0  0
 36  2  4  0  0  0  0
 36 37  1  0  0  0  0
  1 38  1  0  0  0  0
  1 39  1  0  0  0  0
  1 40  1  0  0  0  0
M  END
> <CAS>
42609-52-9

> <NAME>
Daimuron

> <preferred_name>
Daimuron

> <iupac>
1-(4-methylphenyl)-3-(2-phenylpropan-2-yl)urea

> <SMILES>
Cc1ccc(cc1)NC(O)=NC(C)(C)c1ccccc1

> <Canonical_QSARr>
Cc1ccc(cc1)NC(O)=NC(C)(C)c1ccccc1

> <InChI_Code_QSARr>
InChI=1S/C17H20N2O/c1-13-9-11-15(12-10-13)18-16(20)19-17(2,3)14-7-5-4-6-8-14/h4-12H,1-3H3,(H2,18,19,20)

> <InChI Key_QSARr>
NNYRZQHKCHEXSD-UHFFFAOYSA-N

> <Salt_Solvent>
?

> <WS Temperature>
20

> <WS Reference>
TOMLIN,C (1997)

> <dsstox_substance_id>
DTXSID2058099

> <LogMolar>
-5.3495

$$$$
42874-03-3
  -INDIGO-01081615412D

 35 36  0  0  0  0  0  0  0  0999 V2000
    1.3855    2.4001    0.0000 N   0  0  0  0  0  0  0  0  0  0  0  0
    1.3855    4.0000    0.0000 O   0  0  0  0  0  0  0  0  0  0  0  0
    2.7712    1.6000    0.0000 O   0  0  0  0  0  0  0  0  0  0  0  0
    0.0001    1.6000    0.0000 C   0  0  0  0  0  0  0  0  0  0  0  0
   -1.3856    2.4001    0.0000 C   0  0  0  0  0  0  0  0  0  0  0  0
   -1.3856    4.0000    0.0000 H   0  0  0  0  0  0  0  0  0  0  0  0
   -2.7712    1.6000    0.0000 C   0  0  0  0  0  0  0  0  0  0  0  0
   -4.1569    2.4001    0.0000 H   0  0  0  0  0  0  0  0  0  0  0  0
   -2.7712    0.0000    0.0000 C   0  0  0  0  0  0  0  0  0  0  0  0
   -4.1569   -0.8001    0.0000 O   0  0  0  0  0  0  0  0  0  0  0  0
   -5.7570   -0.8001    0.0000 C   0  0  0  0  0  0  0  0  0  0  0  0
   -6.5569   -2.1857    0.0000 C   0  0  0  0  0  0  0  0  0  0  0  0
   -5.7570   -3.5713    0.0000 H   0  0  0  0  0  0  0  0  0  0  0  0
   -8.1570   -2.1857    0.0000 C   0  0  0  0  0  0  0  0  0  0  0  0
   -8.9570   -3.5713    0.0000 H   0  0  0  0  0  0  0  0  0  0  0  0
   -8.9570   -0.8001    0.0000 C   0  0  0  0  0  0  0  0  0  0  0  0
  -10.5568   -0.8001    0.0000 C   0  0  0  0  0  0  0  0  0  0  0  0
  -12.1569   -0.8001    0.0000 F   0  0  0  0  0  0  0  0  0  0  0  0
  -11.3570    0.5857    0.0000 F   0  0  0  0  0  0  0  0  0  0  0  0
  -11.3570   -2.1857    0.0000 F   0  0  0  0  0  0  0  0  0  0  0  0
   -8.1570    0.5857    0.0000 C   0  0  0  0  0  0  0  0  0  0  0  0
   -8.9570    1.9713    0.0000 H   0  0  0  0  0  0  0  0  0  0  0  0
   -6.5569    0.5857    0.0000 C   0  0  0  0  0  0  0  0  0  0  0  0
   -5.7570    1.9713    0.0000 Cl  0  0  0  0  0  0  0  0  0  0  0  0
   -1.3856   -0.7999    0.0000 C   0  0  0  0  0  0  0  0  0  0  0  0
   -1.3856   -2.4000    0.0000 H   0  0  0  0  0  0  0  0  0  0  0  0
    0.0001    0.0000    0.0000 C   0  0  0  0  0  0  0  0  0  0  0  0
    1.3855   -0.7999    0.0000 O   0  0  0  0  0  0  0  0  0  0  0  0
    1.3855   -2.4000    0.0000 C   0  0  0  0  0  0  0  0  0  0  0  0
    1.3855   -3.9999    0.0000 C   0  0  0  0  0  0  0  0  0  0  0  0
    1.3855   -5.6000    0.0000 H   0  0  0  0  0  0  0  0  0  0  0  0
    2.7712   -4.8000    0.0000 H   0  0  0  0  0  0  0  0  0  0  0  0
    0.0001   -4.8000    0.0000 H   0  0  0  0  0  0  0  0  0  0  0  0
    2.9856   -2.4000    0.0000 H   0  0  0  0  0  0  0  0  0  0  0  0
   -0.2143   -2.4000    0.0000 H   0  0  0  0  0  0  0  0  0  0  0  0
  1  2  2  0  0  0  0
  1  3  1  0  0  0  0
  1  4  1  0  0  0  0
  4  5  4  0  0  0  0
  5  6  1  0  0  0  0
  5  7  4  0  0  0  0
  7  8  1  0  0  0  0
  7  9  4  0  0  0  0
  9 10  1  0  0  0  0
 10 11  1  0  0  0  0
 11 12  4  0  0  0  0
 12 13  1  0  0  0  0
 12 14  4  0  0  0  0
 14 15  1  0  0  0  0
 14 16  4  0  0  0  0
 16 17  1  0  0  0  0
 17 18  1  0  0  0  0
 17 19  1  0  0  0  0
 17 20  1  0  0  0  0
 16 21  4  0  0  0  0
 21 22  1  0  0  0  0
 21 23  4  0  0  0  0
 23 11  4  0  0  0  0
 23 24  1  0  0  0  0
  9 25  4  0  0  0  0
 25 26  1  0  0  0  0
 25 27  4  0  0  0  0
 27  4  4  0  0  0  0
 27 28  1  0  0  0  0
 28 29  1  0  0  0  0
 29 30  1  0  0  0  0
 30 31  1  0  0  0  0
 30 32  1  0  0  0  0
 30 33  1  0  0  0  0
 29 34  1  0  0  0  0
 29 35  1  0  0  0  0
M  CHG  2   1   1   3  -1
M  END
> <CAS>
42874-03-3

> <NAME>
OXYFLUORFEN

> <preferred_name>
Oxyfluorfen

> <iupac>
2-chloro-1-(3-ethoxy-4-nitrophenoxy)-4-(trifluoromethyl)benzene

> <SMILES>
CCOc1cc(ccc1[N+]([O-])=O)Oc1ccc(cc1Cl)C(F)(F)F

> <Canonical_QSARr>
CCOc1cc(ccc1[N+]([O-])=O)Oc1ccc(cc1Cl)C(F)(F)F

> <InChI_Code_QSARr>
InChI=1S/C15H11ClF3NO4/c1-2-23-14-8-10(4-5-12(14)20(21)22)24-13-6-3-9(7-11(13)16)15(17,18)19/h3-8H,2H2,1H3

> <InChI Key_QSARr>
OQMBBFQZGJFLBU-UHFFFAOYSA-N

> <Salt_Solvent>
?

> <WS Temperature>
25

> <WS Reference>
TOMLIN,C (1994)

> <dsstox_substance_id>
DTXSID7024241

> <LogMolar>
-6.52595

$$$$
46855-40-7
  -INDIGO-01081615412D

 35 35  0  0  0  0  0  0  0  0999 V2000
    5.5427   -3.2001    0.0000 C   0  0  0  0  0  0  0  0  0  0  0  0
    4.1569   -2.4000    0.0000 C   0  0  0  0  0  0  0  0  0  0  0  0
    2.7713   -1.6000    0.0000 C   0  0  0  0  0  0  0  0  0  0  0  0
    1.3857   -0.8000    0.0000 C   0  0  0  0  0  0  0  0  0  0  0  0
   -0.0001   -0.0000    0.0000 C   0  0  0  0  0  0  0  0  0  0  0  0
   -1.3857    0.8000    0.0000 N   0  0  0  0  0  0  0  0  0  0  0  0
   -1.3857    2.4001    0.0000 C   0  0  0  0  0  0  0  0  0  0  0  0
   -1.3857    4.0000    0.0000 H   0  0  0  0  0  0  0  0  0  0  0  0
   -0.0001    3.2000    0.0000 H   0  0  0  0  0  0  0  0  0  0  0  0
   -2.7713    3.2000    0.0000 H   0  0  0  0  0  0  0  0  0  0  0  0
   -2.7713   -0.0000    0.0000 S   0  0  0  0  0  0  0  0  0  0  0  0
   -1.9713   -1.3857    0.0000 O   0  0  0  0  0  0  0  0  0  0  0  0
   -3.5713    1.3856    0.0000 O   0  0  0  0  0  0  0  0  0  0  0  0
   -4.1569   -0.8000    0.0000 C   0  0  0  0  0  0  0  0  0  0  0  0
   -5.5427   -0.0000    0.0000 C   0  0  0  0  0  0  0  0  0  0  0  0
   -5.5427    1.6000    0.0000 H   0  0  0  0  0  0  0  0  0  0  0  0
   -6.9283   -0.8000    0.0000 C   0  0  0  0  0  0  0  0  0  0  0  0
   -8.3138   -0.0000    0.0000 H   0  0  0  0  0  0  0  0  0  0  0  0
   -6.9283   -2.4000    0.0000 C   0  0  0  0  0  0  0  0  0  0  0  0
   -8.3138   -3.2001    0.0000 H   0  0  0  0  0  0  0  0  0  0  0  0
   -5.5427   -3.2001    0.0000 C   0  0  0  0  0  0  0  0  0  0  0  0
   -5.5427   -4.8000    0.0000 H   0  0  0  0  0  0  0  0  0  0  0  0
   -4.1569   -2.4000    0.0000 C   0  0  0  0  0  0  0  0  0  0  0  0
   -2.7713   -3.2001    0.0000 H   0  0  0  0  0  0  0  0  0  0  0  0
    0.8001    1.3856    0.0000 H   0  0  0  0  0  0  0  0  0  0  0  0
   -0.8001   -1.3857    0.0000 H   0  0  0  0  0  0  0  0  0  0  0  0
    2.1857    0.5857    0.0000 H   0  0  0  0  0  0  0  0  0  0  0  0
    0.5857   -2.1856    0.0000 H   0  0  0  0  0  0  0  0  0  0  0  0
    3.5713   -0.2144    0.0000 H   0  0  0  0  0  0  0  0  0  0  0  0
    1.9713   -2.9856    0.0000 H   0  0  0  0  0  0  0  0  0  0  0  0
    4.9568   -1.0144    0.0000 H   0  0  0  0  0  0  0  0  0  0  0  0
    3.3569   -3.7857    0.0000 H   0  0  0  0  0  0  0  0  0  0  0  0
    6.9283   -2.4000    0.0000 O   0  0  0  0  0  0  0  0  0  0  0  0
    8.3138   -3.2001    0.0000 H   0  0  0  0  0  0  0  0  0  0  0  0
    5.5427   -4.8000    0.0000 O   0  0  0  0  0  0  0  0  0  0  0  0
  1  2  1  0  0  0  0
  2  3  1  0  0  0  0
  3  4  1  0  0  0  0
  4  5  1  0  0  0  0
  5  6  1  0  0  0  0
  6  7  1  0  0  0  0
  7  8  1  0  0  0  0
  7  9  1  0  0  0  0
  7 10  1  0  0  0  0
  6 11  1  0  0  0  0
 11 12  2  0  0  0  0
 11 13  2  0  0  0  0
 11 14  1  0  0  0  0
 14 15  4  0  0  0  0
 15 16  1  0  0  0  0
 15 17  4  0  0  0  0
 17 18  1  0  0  0  0
 17 19  4  0  0  0  0
 19 20  1  0  0  0  0
 19 21  4  0  0  0  0
 21 22  1  0  0  0  0
 21 23  4  0  0  0  0
 23 14  4  0  0  0  0
 23 24  1  0  0  0  0
  5 25  1  0  0  0  0
  5 26  1  0  0  0  0
  4 27  1  0  0  0  0
  4 28  1  0  0  0  0
  3 29  1  0  0  0  0
  3 30  1  0  0  0  0
  2 31  1  0  0  0  0
  2 32  1  0  0  0  0
  1 33  1  0  0  0  0
 33 34  1  0  0  0  0
  1 35  2  0  0  0  0
M  END
> <CAS>
46855-40-7

> <NAME>
Valeric acid, 5-(benzenesulfonyl-methyl-amino)-

> <preferred_name>


> <iupac>


> <SMILES>
CN(CCCCC(O)=O)S(=O)(=O)c1ccccc1

> <Canonical_QSARr>
CN(CCCCC(O)=O)S(=O)(=O)c1ccccc1

> <InChI_Code_QSARr>
InChI=1S/C12H17NO4S/c1-13(10-6-5-9-12(14)15)18(16,17)11-7-3-2-4-8-11/h2-4,7-8H,5-6,9-10H2,1H3,(H,14,15)

> <InChI Key_QSARr>
WFADZGFZNJEISA-UHFFFAOYSA-N

> <Salt_Solvent>
?

> <WS Temperature>
20

> <WS Reference>
BEILSTEIN

> <dsstox_substance_id>


> <LogMolar>
-1.5585

$$$$
50594-66-6
  -INDIGO-01081615412D

 31 32  0  0  0  0  0  0  0  0999 V2000
   10.3426    1.6000    0.0000 O   0  0  0  0  0  0  0  0  0  0  0  0
   10.3426    0.0001    0.0000 C   0  0  0  0  0  0  0  0  0  0  0  0
    8.9569   -0.8000    0.0000 C   0  0  0  0  0  0  0  0  0  0  0  0
    7.5713    0.0001    0.0000 C   0  0  0  0  0  0  0  0  0  0  0  0
    7.5713    1.6000    0.0000 H   0  0  0  0  0  0  0  0  0  0  0  0
    6.1856   -0.8000    0.0000 C   0  0  0  0  0  0  0  0  0  0  0  0
    4.8000    0.0001    0.0000 O   0  0  0  0  0  0  0  0  0  0  0  0
    3.2000    0.0001    0.0000 C   0  0  0  0  0  0  0  0  0  0  0  0
    2.4000    1.3856    0.0000 C   0  0  0  0  0  0  0  0  0  0  0  0
    3.2000    2.7713    0.0000 Cl  0  0  0  0  0  0  0  0  0  0  0  0
    0.8000    1.3856    0.0000 C   0  0  0  0  0  0  0  0  0  0  0  0
   -0.0000    2.7713    0.0000 H   0  0  0  0  0  0  0  0  0  0  0  0
   -0.0000    0.0001    0.0000 C   0  0  0  0  0  0  0  0  0  0  0  0
   -1.6000    0.0001    0.0000 C   0  0  0  0  0  0  0  0  0  0  0  0
   -3.2000    0.0001    0.0000 F   0  0  0  0  0  0  0  0  0  0  0  0
   -2.4000    1.3856    0.0000 F   0  0  0  0  0  0  0  0  0  0  0  0
   -2.4000   -1.3856    0.0000 F   0  0  0  0  0  0  0  0  0  0  0  0
    0.8000   -1.3856    0.0000 C   0  0  0  0  0  0  0  0  0  0  0  0
   -0.0000   -2.7713    0.0000 H   0  0  0  0  0  0  0  0  0  0  0  0
    2.4000   -1.3856    0.0000 C   0  0  0  0  0  0  0  0  0  0  0  0
    3.2000   -2.7713    0.0000 H   0  0  0  0  0  0  0  0  0  0  0  0
    6.1856   -2.4000    0.0000 C   0  0  0  0  0  0  0  0  0  0  0  0
    4.8000   -3.2000    0.0000 H   0  0  0  0  0  0  0  0  0  0  0  0
    7.5713   -3.2000    0.0000 C   0  0  0  0  0  0  0  0  0  0  0  0
    7.5713   -4.8000    0.0000 H   0  0  0  0  0  0  0  0  0  0  0  0
    8.9569   -2.4000    0.0000 C   0  0  0  0  0  0  0  0  0  0  0  0
   10.3426   -3.2000    0.0000 N   0  0  0  0  0  0  0  0  0  0  0  0
   10.3426   -4.8000    0.0000 O   0  0  0  0  0  0  0  0  0  0  0  0
   11.7282   -2.4000    0.0000 O   0  0  0  0  0  0  0  0  0  0  0  0
   11.7282   -0.8000    0.0000 O   0  0  0  0  0  0  0  0  0  0  0  0
   11.7282    2.4000    0.0000 H   0  0  0  0  0  0  0  0  0  0  0  0
  1  2  1  0  0  0  0
  2  3  1  0  0  0  0
  3  4  4  0  0  0  0
  4  5  1  0  0  0  0
  4  6  4  0  0  0  0
  6  7  1  0  0  0  0
  7  8  1  0  0  0  0
  8  9  4  0  0  0  0
  9 10  1  0  0  0  0
  9 11  4  0  0  0  0
 11 12  1  0  0  0  0
 11 13  4  0  0  0  0
 13 14  1  0  0  0  0
 14 15  1  0  0  0  0
 14 16  1  0  0  0  0
 14 17  1  0  0  0  0
 13 18  4  0  0  0  0
 18 19  1  0  0  0  0
 18 20  4  0  0  0  0
 20  8  4  0  0  0  0
 20 21  1  0  0  0  0
  6 22  4  0  0  0  0
 22 23  1  0  0  0  0
 22 24  4  0  0  0  0
 24 25  1  0  0  0  0
 24 26  4  0  0  0  0
 26  3  4  0  0  0  0
 26 27  1  0  0  0  0
 27 28  1  0  0  0  0
 27 29  2  0  0  0  0
  2 30  2  0  0  0  0
  1 31  1  0  0  0  0
M  CHG  2  27   1  28  -1
M  END
> <CAS>
50594-66-6

> <NAME>
ACIFLUORFEN

> <preferred_name>
Acifluorfen

> <iupac>
5-[2-chloro-4-(trifluoromethyl)phenoxy]-2-nitrobenzoic acid

> <SMILES>
[O-][N+](=O)c1ccc(cc1C(O)=O)Oc1ccc(cc1Cl)C(F)(F)F

> <Canonical_QSARr>
[O-][N+](=O)c1ccc(cc1C(O)=O)Oc1ccc(cc1Cl)C(F)(F)F

> <InChI_Code_QSARr>
InChI=1S/C14H7ClF3NO5/c15-10-5-7(14(16,17)18)1-4-12(10)24-8-2-3-11(19(22)23)9(6-8)13(20)21/h1-6H,(H,20,21)

> <InChI Key_QSARr>
NUFNQYOELLVIPL-UHFFFAOYSA-N

> <Salt_Solvent>
?

> <WS Temperature>
25

> <WS Reference>
TOMLIN,C (1994)

> <dsstox_substance_id>
DTXSID0020022

> <LogMolar>
-3.4791

$$$$
51078-49-0
  -INDIGO-01081615412D

 26 25  0  0  0  0  0  0  0  0999 V2000
    0.0806   -3.8298    0.0000 O   0  0  0  0  0  0  0  0  0  0  0  0
   -0.1972   -2.2541    0.0000 C   0  0  0  0  0  0  0  0  0  0  0  0
    1.0284   -1.2256    0.0000 C   0  0  0  0  0  0  0  0  0  0  0  0
   -0.0000    0.0000    0.0000 C   0  0  0  0  0  0  0  0  0  0  0  0
   -1.3857    0.7999    0.0000 C   0  0  0  0  0  0  0  0  0  0  0  0
   -2.7713    1.6000    0.0000 H   0  0  0  0  0  0  0  0  0  0  0  0
   -2.7713    0.0000    0.0000 H   0  0  0  0  0  0  0  0  0  0  0  0
   -1.3857    2.4000    0.0000 H   0  0  0  0  0  0  0  0  0  0  0  0
    0.7999    1.3857    0.0000 C   0  0  0  0  0  0  0  0  0  0  0  0
    1.5999    2.7713    0.0000 H   0  0  0  0  0  0  0  0  0  0  0  0
   -0.0000    2.7713    0.0000 H   0  0  0  0  0  0  0  0  0  0  0  0
    2.4001    1.3857    0.0000 H   0  0  0  0  0  0  0  0  0  0  0  0
   -0.8000   -1.3856    0.0000 H   0  0  0  0  0  0  0  0  0  0  0  0
    2.0570   -2.4513    0.0000 N   0  0  0  0  0  0  0  0  0  0  0  0
    3.6327   -2.1735    0.0000 C   0  0  0  0  0  0  0  0  0  0  0  0
    5.2083   -1.8956    0.0000 C   0  0  0  0  0  0  0  0  0  0  0  0
    6.7840   -1.6179    0.0000 C   0  0  0  0  0  0  0  0  0  0  0  0
    8.3597   -1.3400    0.0000 N   0  0  0  0  0  0  0  0  0  0  0  0
    5.4862   -3.4714    0.0000 H   0  0  0  0  0  0  0  0  0  0  0  0
    4.9305   -0.3200    0.0000 H   0  0  0  0  0  0  0  0  0  0  0  0
    3.9105   -3.7492    0.0000 H   0  0  0  0  0  0  0  0  0  0  0  0
    3.3548   -0.5978    0.0000 H   0  0  0  0  0  0  0  0  0  0  0  0
    1.5097   -3.9549    0.0000 H   0  0  0  0  0  0  0  0  0  0  0  0
    2.2542   -0.1972    0.0000 H   0  0  0  0  0  0  0  0  0  0  0  0
   -1.7729   -1.9763    0.0000 O   0  0  0  0  0  0  0  0  0  0  0  0
   -1.1450   -4.8583    0.0000 H   0  0  0  0  0  0  0  0  0  0  0  0
  1  2  1  0  0  0  0
  2  3  1  0  0  0  0
  3  4  1  0  0  0  0
  4  5  1  0  0  0  0
  5  6  1  0  0  0  0
  5  7  1  0  0  0  0
  5  8  1  0  0  0  0
  4  9  1  0  0  0  0
  9 10  1  0  0  0  0
  9 11  1  0  0  0  0
  9 12  1  0  0  0  0
  4 13  1  0  0  0  0
  3 14  1  0  0  0  0
 14 15  1  0  0  0  0
 15 16  1  0  0  0  0
 16 17  1  0  0  0  0
 17 18  3  0  0  0  0
 16 19  1  0  0  0  0
 16 20  1  0  0  0  0
 15 21  1  0  0  0  0
 15 22  1  0  0  0  0
 14 23  1  0  0  0  0
  3 24  1  0  0  0  0
  2 25  2  0  0  0  0
  1 26  1  0  0  0  0
M  END
> <CAS>
51078-49-0

> <NAME>
N-<2-cyano-ethyl>-valine

> <preferred_name>
N-(2-Cyanoethyl)valine

> <iupac>
C8H14N2O2

> <SMILES>
CC(C)[C@H](NCCC#N)C(O)=O

> <Canonical_QSARr>
CC(C)C(NCCC#N)C(O)=O

> <InChI_Code_QSARr>
InChI=1S/C8H14N2O2/c1-6(2)7(8(11)12)10-5-3-4-9/h6-7,10H,3,5H2,1-2H3,(H,11,12)

> <InChI Key_QSARr>
RXNXODTWPQTIHO-UHFFFAOYSA-N

> <Salt_Solvent>
?

> <WS Temperature>
25

> <WS Reference>
BEILSTEIN

> <dsstox_substance_id>
DTXSID90470238

> <LogMolar>
-1.1238

$$$$
51235-04-2
  -INDIGO-01081615412D

 38 39  0  0  0  0  0  0  0  0999 V2000
    3.6986   -2.0592    0.0000 N   0  0  0  0  0  0  0  0  0  0  0  0
    2.1229   -1.7814    0.0000 C   0  0  0  0  0  0  0  0  0  0  0  0
    1.0945   -3.0071    0.0000 O   0  0  0  0  0  0  0  0  0  0  0  0
    1.5757   -0.2779    0.0000 N   0  0  0  0  0  0  0  0  0  0  0  0
    0.0000   -0.0000    0.0000 C   0  0  0  0  0  0  0  0  0  0  0  0
   -0.7999    1.3857    0.0000 C   0  0  0  0  0  0  0  0  0  0  0  0
    0.7035    1.9328    0.0000 H   0  0  0  0  0  0  0  0  0  0  0  0
   -1.0778    2.9613    0.0000 H   0  0  0  0  0  0  0  0  0  0  0  0
   -2.4000    1.3857    0.0000 C   0  0  0  0  0  0  0  0  0  0  0  0
   -2.1221    2.9613    0.0000 H   0  0  0  0  0  0  0  0  0  0  0  0
   -3.9034    1.9328    0.0000 H   0  0  0  0  0  0  0  0  0  0  0  0
   -3.1999   -0.0000    0.0000 C   0  0  0  0  0  0  0  0  0  0  0  0
   -4.4257    1.0285    0.0000 H   0  0  0  0  0  0  0  0  0  0  0  0
   -4.4257   -1.0284    0.0000 H   0  0  0  0  0  0  0  0  0  0  0  0
   -2.4000   -1.3856    0.0000 C   0  0  0  0  0  0  0  0  0  0  0  0
   -3.9034   -1.9329    0.0000 H   0  0  0  0  0  0  0  0  0  0  0  0
   -2.1221   -2.9613    0.0000 H   0  0  0  0  0  0  0  0  0  0  0  0
   -0.7999   -1.3856    0.0000 C   0  0  0  0  0  0  0  0  0  0  0  0
   -1.0778   -2.9613    0.0000 H   0  0  0  0  0  0  0  0  0  0  0  0
    0.7035   -1.9329    0.0000 H   0  0  0  0  0  0  0  0  0  0  0  0
    1.2258    1.0285    0.0000 H   0  0  0  0  0  0  0  0  0  0  0  0
    2.6041    0.9478    0.0000 C   0  0  0  0  0  0  0  0  0  0  0  0
    2.0570    2.4513    0.0000 O   0  0  0  0  0  0  0  0  0  0  0  0
    4.1799    0.6700    0.0000 N   0  0  0  0  0  0  0  0  0  0  0  0
    5.2083    1.8957    0.0000 C   0  0  0  0  0  0  0  0  0  0  0  0
    6.2367    3.1213    0.0000 H   0  0  0  0  0  0  0  0  0  0  0  0
    4.6611    3.3992    0.0000 H   0  0  0  0  0  0  0  0  0  0  0  0
    6.7840    1.6178    0.0000 H   0  0  0  0  0  0  0  0  0  0  0  0
    4.7270   -0.8335    0.0000 C   0  0  0  0  0  0  0  0  0  0  0  0
    6.3029   -1.1113    0.0000 N   0  0  0  0  0  0  0  0  0  0  0  0
    6.8499   -2.6149    0.0000 C   0  0  0  0  0  0  0  0  0  0  0  0
    7.3972   -4.1184    0.0000 H   0  0  0  0  0  0  0  0  0  0  0  0
    8.4258   -2.8927    0.0000 H   0  0  0  0  0  0  0  0  0  0  0  0
    5.8215   -3.8405    0.0000 H   0  0  0  0  0  0  0  0  0  0  0  0
    7.3313    0.1143    0.0000 C   0  0  0  0  0  0  0  0  0  0  0  0
    8.9069   -0.1635    0.0000 H   0  0  0  0  0  0  0  0  0  0  0  0
    8.3597    1.3400    0.0000 H   0  0  0  0  0  0  0  0  0  0  0  0
    7.8785   -1.3892    0.0000 H   0  0  0  0  0  0  0  0  0  0  0  0
  1  2  1  0  0  0  0
  2  3  2  0  0  0  0
  2  4  1  0  0  0  0
  4  5  1  0  0  0  0
  5  6  1  0  0  0  0
  6  7  1  0  0  0  0
  6  8  1  0  0  0  0
  6  9  1  0  0  0  0
  9 10  1  0  0  0  0
  9 11  1  0  0  0  0
  9 12  1  0  0  0  0
 12 13  1  0  0  0  0
 12 14  1  0  0  0  0
 12 15  1  0  0  0  0
 15 16  1  0  0  0  0
 15 17  1  0  0  0  0
 15 18  1  0  0  0  0
 18  5  1  0  0  0  0
 18 19  1  0  0  0  0
 18 20  1  0  0  0  0
  5 21  1  0  0  0  0
  4 22  1  0  0  0  0
 22 23  2  0  0  0  0
 22 24  1  0  0  0  0
 24 25  1  0  0  0  0
 25 26  1  0  0  0  0
 25 27  1  0  0  0  0
 25 28  1  0  0  0  0
 24 29  1  0  0  0  0
 29  1  2  0  0  0  0
 29 30  1  0  0  0  0
 30 31  1  0  0  0  0
 31 32  1  0  0  0  0
 31 33  1  0  0  0  0
 31 34  1  0  0  0  0
 30 35  1  0  0  0  0
 35 36  1  0  0  0  0
 35 37  1  0  0  0  0
 35 38  1  0  0  0  0
M  END
> <CAS>
51235-04-2

> <NAME>
HEXAZINONE

> <preferred_name>
Hexazinone

> <iupac>
3-cyclohexyl-6-(dimethylamino)-1-methyl-1,3,5-triazine-2,4(1H,3H)-dione

> <SMILES>
CN(C)C1=NC(=O)N(C2CCCCC2)C(=O)N1C

> <Canonical_QSARr>
CN(C)C1=NC(=O)N(C2CCCCC2)C(=O)N1C

> <InChI_Code_QSARr>
InChI=1S/C12H20N4O2/c1-14(2)10-13-11(17)16(12(18)15(10)3)9-7-5-4-6-8-9/h9H,4-8H2,1-3H3

> <InChI Key_QSARr>
CAWXEEYDBZRFPE-UHFFFAOYSA-N

> <Salt_Solvent>
?

> <WS Temperature>
25

> <WS Reference>
TOMLIN,C (1997)

> <dsstox_substance_id>
DTXSID4024145

> <LogMolar>
-0.8834

$$$$
51440-83-6
  -INDIGO-01081615412D

 21 20  0  0  0  0  0  0  0  0999 V2000
    0.5472    1.5035    0.0000 C   0  0  0  0  0  0  0  0  0  0  0  0
   -0.0000    0.0000    0.0000 C   0  0  0  0  0  0  0  0  0  0  0  0
    1.3857   -0.8000    0.0000 S   0  0  0  0  0  0  0  0  0  0  0  0
    2.9614   -0.5222    0.0000 C   0  0  0  0  0  0  0  0  0  0  0  0
    3.5086    0.9814    0.0000 S   0  0  0  0  0  0  0  0  0  0  0  0
    3.9897   -1.7478    0.0000 O   0  0  0  0  0  0  0  0  0  0  0  0
    5.5654   -1.4700    0.0000 C   0  0  0  0  0  0  0  0  0  0  0  0
    7.1412   -1.1922    0.0000 C   0  0  0  0  0  0  0  0  0  0  0  0
    8.7169   -0.9143    0.0000 H   0  0  0  0  0  0  0  0  0  0  0  0
    8.1696   -2.4179    0.0000 H   0  0  0  0  0  0  0  0  0  0  0  0
    7.6884    0.3113    0.0000 H   0  0  0  0  0  0  0  0  0  0  0  0
    5.8433   -3.0457    0.0000 H   0  0  0  0  0  0  0  0  0  0  0  0
    5.2876    0.1057    0.0000 H   0  0  0  0  0  0  0  0  0  0  0  0
   -0.8000   -1.3857    0.0000 C   0  0  0  0  0  0  0  0  0  0  0  0
   -1.6000   -2.7713    0.0000 H   0  0  0  0  0  0  0  0  0  0  0  0
   -2.4000   -1.3857    0.0000 H   0  0  0  0  0  0  0  0  0  0  0  0
   -0.0000   -2.7713    0.0000 H   0  0  0  0  0  0  0  0  0  0  0  0
   -1.3856    0.8000    0.0000 H   0  0  0  0  0  0  0  0  0  0  0  0
   -0.4813    2.7291    0.0000 O   0  0  0  0  0  0  0  0  0  0  0  0
    0.0659    4.2327    0.0000 H   0  0  0  0  0  0  0  0  0  0  0  0
    2.1229    1.7814    0.0000 O   0  0  0  0  0  0  0  0  0  0  0  0
  1  2  1  0  0  0  0
  2  3  1  0  0  0  0
  3  4  1  0  0  0  0
  4  5  2  0  0  0  0
  4  6  1  0  0  0  0
  6  7  1  0  0  0  0
  7  8  1  0  0  0  0
  8  9  1  0  0  0  0
  8 10  1  0  0  0  0
  8 11  1  0  0  0  0
  7 12  1  0  0  0  0
  7 13  1  0  0  0  0
  2 14  1  0  0  0  0
 14 15  1  0  0  0  0
 14 16  1  0  0  0  0
 14 17  1  0  0  0  0
  2 18  1  0  0  0  0
  1 19  1  0  0  0  0
 19 20  1  0  0  0  0
  1 21  2  0  0  0  0
M  END
> <CAS>
51440-83-6

> <NAME>
Propanoic acid, 2-[(ethoxythioxomethyl)thio]-

> <preferred_name>


> <iupac>


> <SMILES>
CCOC(=S)SC(C)C(O)=O

> <Canonical_QSARr>
CCOC(=S)SC(C)C(O)=O

> <InChI_Code_QSARr>
InChI=1S/C6H10O3S2/c1-3-9-6(10)11-4(2)5(7)8/h4H,3H2,1-2H3,(H,7,8)

> <InChI Key_QSARr>
LWNPIVOFJQQAMH-UHFFFAOYSA-N

> <Salt_Solvent>
?

> <WS Temperature>
25

> <WS Reference>
BEILSTEIN

> <dsstox_substance_id>


> <LogMolar>
-1.4489

$$$$
51596-10-2
  -INDIGO-01081615412D

 82 86  0  0  0  0  0  0  0  0999 V2000
    6.4367   -4.8772    0.0000 C   0  0  0  0  0  0  0  0  0  0  0  0
    7.0959   -3.4193    0.0000 C   0  0  0  0  0  0  0  0  0  0  0  0
    8.1929   -4.5840    0.0000 H   0  0  0  0  0  0  0  0  0  0  0  0
    8.6758   -3.6726    0.0000 H   0  0  0  0  0  0  0  0  0  0  0  0
    7.1374   -1.8198    0.0000 C   0  0  0  0  0  0  0  0  0  0  0  0
    5.7519   -1.0199    0.0000 C   0  0  0  0  0  0  0  0  0  0  0  0
    4.1763   -0.7419    0.0000 H   0  0  0  0  0  0  0  0  0  0  0  0
    5.2047   -2.5233    0.0000 H   0  0  0  0  0  0  0  0  0  0  0  0
    5.7519    0.5802    0.0000 C   0  0  0  0  0  0  0  0  0  0  0  0
    7.1374    1.3801    0.0000 C   0  0  0  0  0  0  0  0  0  0  0  0
    8.5232    0.5802    0.0000 C   0  0  0  0  0  0  0  0  0  0  0  0
    9.9087   -0.2197    0.0000 C   0  0  0  0  0  0  0  0  0  0  0  0
    9.3615   -1.7234    0.0000 H   0  0  0  0  0  0  0  0  0  0  0  0
   10.9371   -1.4454    0.0000 H   0  0  0  0  0  0  0  0  0  0  0  0
   11.2944    0.5802    0.0000 C   0  0  0  0  0  0  0  0  0  0  0  0
   11.8416   -0.9233    0.0000 H   0  0  0  0  0  0  0  0  0  0  0  0
   12.8701    0.8581    0.0000 H   0  0  0  0  0  0  0  0  0  0  0  0
   11.2944    2.1802    0.0000 C   0  0  0  0  0  0  0  0  0  0  0  0
   12.8701    2.4579    0.0000 C   0  0  0  0  0  0  0  0  0  0  0  0
   14.4458    2.7359    0.0000 H   0  0  0  0  0  0  0  0  0  0  0  0
   13.8986    1.2324    0.0000 H   0  0  0  0  0  0  0  0  0  0  0  0
   13.4173    3.9616    0.0000 H   0  0  0  0  0  0  0  0  0  0  0  0
   11.8416    3.6836    0.0000 H   0  0  0  0  0  0  0  0  0  0  0  0
    9.9087    2.9801    0.0000 C   0  0  0  0  0  0  0  0  0  0  0  0
    8.8802    4.2058    0.0000 C   0  0  0  0  0  0  0  0  0  0  0  0
    9.4274    5.7092    0.0000 H   0  0  0  0  0  0  0  0  0  0  0  0
    7.8518    5.4315    0.0000 H   0  0  0  0  0  0  0  0  0  0  0  0
    7.3046    3.9281    0.0000 H   0  0  0  0  0  0  0  0  0  0  0  0
   10.9371    4.2058    0.0000 H   0  0  0  0  0  0  0  0  0  0  0  0
    8.5232    2.1802    0.0000 O   0  0  0  0  0  0  0  0  0  0  0  0
    8.5232   -1.0199    0.0000 O   0  0  0  0  0  0  0  0  0  0  0  0
    7.9373    2.7658    0.0000 H   0  0  0  0  0  0  0  0  0  0  0  0
    6.3375    2.7658    0.0000 H   0  0  0  0  0  0  0  0  0  0  0  0
    5.7312    2.1800    0.0000 H   0  0  0  0  0  0  0  0  0  0  0  0
    4.3460    1.3440    0.0000 O   0  0  0  0  0  0  0  0  0  0  0  0
    2.7538    1.5018    0.0000 C   0  0  0  0  0  0  0  0  0  0  0  0
    3.1472    3.0527    0.0000 O   0  0  0  0  0  0  0  0  0  0  0  0
    1.2251    1.0293    0.0000 C   0  0  0  0  0  0  0  0  0  0  0  0
    2.0585    2.3950    0.0000 H   0  0  0  0  0  0  0  0  0  0  0  0
   -0.0001    0.0001    0.0000 C   0  0  0  0  0  0  0  0  0  0  0  0
   -1.4891   -0.5853    0.0000 O   0  0  0  0  0  0  0  0  0  0  0  0
   -2.7407    0.4116    0.0000 H   0  0  0  0  0  0  0  0  0  0  0  0
   -1.5038    0.5465    0.0000 C   0  0  0  0  0  0  0  0  0  0  0  0
   -1.7824    2.1220    0.0000 C   0  0  0  0  0  0  0  0  0  0  0  0
   -2.5832    3.5070    0.0000 O   0  0  0  0  0  0  0  0  0  0  0  0
   -4.1833    3.5063    0.0000 H   0  0  0  0  0  0  0  0  0  0  0  0
   -0.5575    3.1510    0.0000 C   0  0  0  0  0  0  0  0  0  0  0  0
   -0.8361    4.7266    0.0000 C   0  0  0  0  0  0  0  0  0  0  0  0
   -1.1150    6.3022    0.0000 H   0  0  0  0  0  0  0  0  0  0  0  0
    0.3890    5.7558    0.0000 H   0  0  0  0  0  0  0  0  0  0  0  0
   -2.3399    5.2730    0.0000 H   0  0  0  0  0  0  0  0  0  0  0  0
    0.9465    2.6046    0.0000 C   0  0  0  0  0  0  0  0  0  0  0  0
    2.1714    3.6338    0.0000 H   0  0  0  0  0  0  0  0  0  0  0  0
   -3.3825    2.1211    0.0000 H   0  0  0  0  0  0  0  0  0  0  0  0
   -2.8788   -0.2719    0.0000 O   0  0  0  0  0  0  0  0  0  0  0  0
   -2.2935   -1.7609    0.0000 C   0  0  0  0  0  0  0  0  0  0  0  0
   -3.8120   -2.2648    0.0000 H   0  0  0  0  0  0  0  0  0  0  0  0
   -2.3700   -2.5425    0.0000 H   0  0  0  0  0  0  0  0  0  0  0  0
   -0.7292   -1.4241    0.0000 C   0  0  0  0  0  0  0  0  0  0  0  0
   -0.8486   -3.0196    0.0000 C   0  0  0  0  0  0  0  0  0  0  0  0
   -1.6110   -3.2081    0.0000 H   0  0  0  0  0  0  0  0  0  0  0  0
   -0.3389   -4.5363    0.0000 C   0  0  0  0  0  0  0  0  0  0  0  0
   -1.7244   -5.3362    0.0000 H   0  0  0  0  0  0  0  0  0  0  0  0
    0.7196   -5.7359    0.0000 C   0  0  0  0  0  0  0  0  0  0  0  0
    0.2478   -7.2650    0.0000 H   0  0  0  0  0  0  0  0  0  0  0  0
    2.1611   -6.4307    0.0000 C   0  0  0  0  0  0  0  0  0  0  0  0
    1.4073   -7.8418    0.0000 C   0  0  0  0  0  0  0  0  0  0  0  0
    0.6534   -9.2531    0.0000 H   0  0  0  0  0  0  0  0  0  0  0  0
   -0.1584   -8.1714    0.0000 H   0  0  0  0  0  0  0  0  0  0  0  0
    2.2524   -9.2004    0.0000 H   0  0  0  0  0  0  0  0  0  0  0  0
    2.6953   -7.9388    0.0000 H   0  0  0  0  0  0  0  0  0  0  0  0
    3.7592   -6.5109    0.0000 C   0  0  0  0  0  0  0  0  0  0  0  0
    3.6123   -8.1043    0.0000 H   0  0  0  0  0  0  0  0  0  0  0  0
    4.8369   -7.6934    0.0000 H   0  0  0  0  0  0  0  0  0  0  0  0
    5.2630   -5.9645    0.0000 C   0  0  0  0  0  0  0  0  0  0  0  0
    6.0964   -7.3305    0.0000 C   0  0  0  0  0  0  0  0  0  0  0  0
    6.9299   -8.6962    0.0000 H   0  0  0  0  0  0  0  0  0  0  0  0
    7.6960   -7.2916    0.0000 H   0  0  0  0  0  0  0  0  0  0  0  0
    5.3304   -8.7349    0.0000 H   0  0  0  0  0  0  0  0  0  0  0  0
   -2.9584    1.2125    0.0000 H   0  0  0  0  0  0  0  0  0  0  0  0
    8.5127   -2.6377    0.0000 H   0  0  0  0  0  0  0  0  0  0  0  0
    7.7349   -5.8121    0.0000 H   0  0  0  0  0  0  0  0  0  0  0  0
  1  2  1  0  0  0  0
  2  3  1  0  0  0  0
  2  4  1  0  0  0  0
  2  5  1  0  0  0  0
  5  6  1  0  0  0  0
  6  7  1  0  0  0  0
  6  8  1  0  0  0  0
  6  9  1  0  0  0  0
  9 10  1  0  0  0  0
 10 11  1  0  0  0  0
 11 12  1  0  0  0  0
 12 13  1  0  0  0  0
 12 14  1  0  0  0  0
 12 15  1  0  0  0  0
 15 16  1  0  0  0  0
 15 17  1  0  0  0  0
 15 18  1  0  0  0  0
 18 19  1  0  0  0  0
 19 20  1  0  0  0  0
 19 21  1  0  0  0  0
 19 22  1  0  0  0  0
 18 23  1  0  0  0  0
 18 24  1  0  0  0  0
 24 25  1  0  0  0  0
 25 26  1  0  0  0  0
 25 27  1  0  0  0  0
 25 28  1  0  0  0  0
 24 29  1  0  0  0  0
 24 30  1  0  0  0  0
 30 11  1  0  0  0  0
 11 31  1  0  0  0  0
 31  5  1  0  0  0  0
 10 32  1  0  0  0  0
 10 33  1  0  0  0  0
  9 34  1  0  0  0  0
  9 35  1  0  0  0  0
 35 36  1  0  0  0  0
 36 37  2  0  0  0  0
 36 38  1  0  0  0  0
 38 39  1  0  0  0  0
 38 40  1  0  0  0  0
 40 41  1  0  0  0  0
 41 42  1  0  0  0  0
 40 43  1  0  0  0  0
 43 44  1  0  0  0  0
 44 45  1  0  0  0  0
 45 46  1  0  0  0  0
 44 47  1  0  0  0  0
 47 48  1  0  0  0  0
 48 49  1  0  0  0  0
 48 50  1  0  0  0  0
 48 51  1  0  0  0  0
 47 52  2  0  0  0  0
 52 38  1  0  0  0  0
 52 53  1  0  0  0  0
 44 54  1  0  0  0  0
 43 55  1  0  0  0  0
 55 56  1  0  0  0  0
 56 57  1  0  0  0  0
 56 58  1  0  0  0  0
 56 59  1  0  0  0  0
 59 40  1  0  0  0  0
 59 60  2  0  0  0  0
 60 61  1  0  0  0  0
 60 62  1  0  0  0  0
 62 63  1  0  0  0  0
 62 64  2  0  0  0  0
 64 65  1  0  0  0  0
 64 66  1  0  0  0  0
 66 67  1  0  0  0  0
 67 68  1  0  0  0  0
 67 69  1  0  0  0  0
 67 70  1  0  0  0  0
 66 71  1  0  0  0  0
 66 72  1  0  0  0  0
 72 73  1  0  0  0  0
 72 74  1  0  0  0  0
 72 75  1  0  0  0  0
 75  1  2  0  0  0  0
 75 76  1  0  0  0  0
 76 77  1  0  0  0  0
 76 78  1  0  0  0  0
 76 79  1  0  0  0  0
 43 80  1  0  0  0  0
  5 81  1  0  0  0  0
  1 82  1  0  0  0  0
M  END
> <CAS>
51596-10-2

> <NAME>
Milbemectin A3

> <preferred_name>
Milbemectin

> <iupac>
(2aE,4E,5'S,6R,6'R,8E,11R,13R,15S,17aR,20R,20aR,20bS)-20,20b-dihydroxy-5',6,6',8,19-pentamethyl-3',4',5',6,6',7,10,11,14,15,17a,20,20a,20b-tetradecahydro-2H,17H-spiro[11,15-methanofuro[4,3,2-pq][2,6]benzodioxacyclooctadecine-13,2'-pyran]-17-one

> <SMILES>
CC1=C[C@H]2C(=O)O[C@@H]3C[C@]4(CC[C@H](C)[C@@H](C)O4)O[C@H](CC=C(C)C[C@@H](C)C=CC=C4CO[C@H]([C@@H]1O)[C@@]42O)C3 |c:21,t:1,27|

> <Canonical_QSARr>
CC1=CC2C(=O)OC3CC4(CCC(C)C(C)O4)OC(CC=C(C)CC(C)C=CC=C4COC(C1O)C42O)C3

> <InChI_Code_QSARr>
InChI=1S/C31H44O7/c1-18-7-6-8-23-17-35-28-27(32)21(4)14-26(31(23,28)34)29(33)36-25-15-24(10-9-19(2)13-18)38-30(16-25)12-11-20(3)22(5)37-30/h6-9,14,18,20,22,24-28,32,34H,10-13,15-17H2,1-5H3/b7-6-,19-9-,23-8-

> <InChI Key_QSARr>
ZLBGSRMUSVULIE-QSAMULLVSA-N

> <Salt_Solvent>
?

> <WS Temperature>
20

> <WS Reference>
TOMLIN,C (1997)

> <dsstox_substance_id>
DTXSID1058391

> <LogMolar>
-5.7787

$$$$
51892-26-3
  -INDIGO-01081615412D

 23 24  0  0  0  0  0  0  0  0999 V2000
    0.0000   -2.7713    0.0000 Cl  0  0  0  0  0  0  0  0  0  0  0  0
    0.8000   -1.3856    0.0000 C   0  0  0  0  0  0  0  0  0  0  0  0
    2.4000   -1.3856    0.0000 C   0  0  0  0  0  0  0  0  0  0  0  0
    3.2000   -2.7713    0.0000 H   0  0  0  0  0  0  0  0  0  0  0  0
    3.2000    0.0001    0.0000 C   0  0  0  0  0  0  0  0  0  0  0  0
    4.8000    0.0001    0.0000 Cl  0  0  0  0  0  0  0  0  0  0  0  0
    2.4000    1.3856    0.0000 C   0  0  0  0  0  0  0  0  0  0  0  0
    3.2000    2.7713    0.0000 H   0  0  0  0  0  0  0  0  0  0  0  0
    0.8000    1.3856    0.0000 C   0  0  0  0  0  0  0  0  0  0  0  0
    0.0000    2.7713    0.0000 H   0  0  0  0  0  0  0  0  0  0  0  0
    0.0000    0.0001    0.0000 C   0  0  0  0  0  0  0  0  0  0  0  0
   -1.6000    0.0001    0.0000 O   0  0  0  0  0  0  0  0  0  0  0  0
   -2.9857   -0.8000    0.0000 C   0  0  0  0  0  0  0  0  0  0  0  0
   -4.3714    0.0001    0.0000 C   0  0  0  0  0  0  0  0  0  0  0  0
   -4.3714    1.6000    0.0000 H   0  0  0  0  0  0  0  0  0  0  0  0
   -5.7569   -0.8000    0.0000 C   0  0  0  0  0  0  0  0  0  0  0  0
   -7.1426    0.0001    0.0000 H   0  0  0  0  0  0  0  0  0  0  0  0
   -5.7569   -2.4000    0.0000 C   0  0  0  0  0  0  0  0  0  0  0  0
   -7.1426   -3.2000    0.0000 H   0  0  0  0  0  0  0  0  0  0  0  0
   -4.3714   -3.2000    0.0000 C   0  0  0  0  0  0  0  0  0  0  0  0
   -4.3714   -4.8000    0.0000 H   0  0  0  0  0  0  0  0  0  0  0  0
   -2.9857   -2.4000    0.0000 C   0  0  0  0  0  0  0  0  0  0  0  0
   -1.6000   -3.2000    0.0000 H   0  0  0  0  0  0  0  0  0  0  0  0
  1  2  1  0  0  0  0
  2  3  4  0  0  0  0
  3  4  1  0  0  0  0
  3  5  4  0  0  0  0
  5  6  1  0  0  0  0
  5  7  4  0  0  0  0
  7  8  1  0  0  0  0
  7  9  4  0  0  0  0
  9 10  1  0  0  0  0
  9 11  4  0  0  0  0
 11  2  4  0  0  0  0
 11 12  1  0  0  0  0
 12 13  1  0  0  0  0
 13 14  4  0  0  0  0
 14 15  1  0  0  0  0
 14 16  4  0  0  0  0
 16 17  1  0  0  0  0
 16 18  4  0  0  0  0
 18 19  1  0  0  0  0
 18 20  4  0  0  0  0
 20 21  1  0  0  0  0
 20 22  4  0  0  0  0
 22 13  4  0  0  0  0
 22 23  1  0  0  0  0
M  END
> <CAS>
51892-26-3

> <NAME>
2,4-Dichlorodiphenyl ether

> <preferred_name>
2,4-Dichlorodiphenyl ether

> <iupac>
2,4-dichloro-1-(phenoxy)benzene

> <SMILES>
Clc1cc(Cl)c(cc1)Oc1ccccc1

> <Canonical_QSARr>
Clc1cc(Cl)c(cc1)Oc1ccccc1

> <InChI_Code_QSARr>
InChI=1S/C12H8Cl2O/c13-9-6-7-12(11(14)8-9)15-10-4-2-1-3-5-10/h1-8H

> <InChI Key_QSARr>
KXIPYLZZJZMMPD-UHFFFAOYSA-N

> <Salt_Solvent>
?

> <WS Temperature>
25

> <WS Reference>
KURZ,J & BALLSCHMITER,K (1999)

> <dsstox_substance_id>
DTXSID00199847

> <LogMolar>
-4.6304

$$$$
52387-57-2
  -INDIGO-01081615412D

 27 27  0  0  0  0  0  0  0  0999 V2000
   -5.5426    0.0000    0.0000 C   0  0  0  0  0  0  0  0  0  0  0  0
   -4.1568   -0.8000    0.0000 N   0  0  0  0  0  0  0  0  0  0  0  0
   -2.7713    0.0000    0.0000 C   0  0  0  0  0  0  0  0  0  0  0  0
   -1.3855    0.8000    0.0000 N   0  0  0  0  0  0  0  0  0  0  0  0
    0.0000    0.0000    0.0000 C   0  0  0  0  0  0  0  0  0  0  0  0
    1.3857   -0.8000    0.0000 C   0  0  0  0  0  0  0  0  0  0  0  0
    2.7713   -1.6000    0.0000 H   0  0  0  0  0  0  0  0  0  0  0  0
    2.7713    0.0000    0.0000 H   0  0  0  0  0  0  0  0  0  0  0  0
    1.3857   -2.4000    0.0000 H   0  0  0  0  0  0  0  0  0  0  0  0
    0.8001    1.3856    0.0000 H   0  0  0  0  0  0  0  0  0  0  0  0
   -0.8001   -1.3856    0.0000 H   0  0  0  0  0  0  0  0  0  0  0  0
   -1.3855    2.4000    0.0000 H   0  0  0  0  0  0  0  0  0  0  0  0
   -1.9712   -1.3856    0.0000 H   0  0  0  0  0  0  0  0  0  0  0  0
   -3.5714    1.3856    0.0000 H   0  0  0  0  0  0  0  0  0  0  0  0
   -4.1568   -2.4000    0.0000 H   0  0  0  0  0  0  0  0  0  0  0  0
   -6.9281   -0.8000    0.0000 C   0  0  0  0  0  0  0  0  0  0  0  0
   -8.3138    0.0000    0.0000 C   0  0  0  0  0  0  0  0  0  0  0  0
   -8.3138    1.6000    0.0000 H   0  0  0  0  0  0  0  0  0  0  0  0
   -9.6994   -0.8000    0.0000 C   0  0  0  0  0  0  0  0  0  0  0  0
  -11.0851    0.0000    0.0000 H   0  0  0  0  0  0  0  0  0  0  0  0
   -9.6994   -2.4000    0.0000 C   0  0  0  0  0  0  0  0  0  0  0  0
  -11.0851   -3.2000    0.0000 H   0  0  0  0  0  0  0  0  0  0  0  0
   -8.3138   -3.2000    0.0000 C   0  0  0  0  0  0  0  0  0  0  0  0
   -8.3138   -4.8000    0.0000 H   0  0  0  0  0  0  0  0  0  0  0  0
   -6.9281   -2.4000    0.0000 C   0  0  0  0  0  0  0  0  0  0  0  0
   -5.5426   -3.2000    0.0000 H   0  0  0  0  0  0  0  0  0  0  0  0
   -5.5426    1.6000    0.0000 O   0  0  0  0  0  0  0  0  0  0  0  0
  1  2  1  0  0  0  0
  2  3  1  0  0  0  0
  3  4  1  0  0  0  0
  4  5  1  0  0  0  0
  5  6  1  0  0  0  0
  6  7  1  0  0  0  0
  6  8  1  0  0  0  0
  6  9  1  0  0  0  0
  5 10  1  0  0  0  0
  5 11  1  0  0  0  0
  4 12  1  0  0  0  0
  3 13  1  0  0  0  0
  3 14  1  0  0  0  0
  2 15  1  0  0  0  0
  1 16  1  0  0  0  0
 16 17  4  0  0  0  0
 17 18  1  0  0  0  0
 17 19  4  0  0  0  0
 19 20  1  0  0  0  0
 19 21  4  0  0  0  0
 21 22  1  0  0  0  0
 21 23  4  0  0  0  0
 23 24  1  0  0  0  0
 23 25  4  0  0  0  0
 25 16  4  0  0  0  0
 25 26  1  0  0  0  0
  1 27  2  0  0  0  0
M  END
> <CAS>
52387-57-2

> <NAME>
N-(ETHYLAMINOMETHYL)BENZAMIDE

> <preferred_name>


> <iupac>


> <SMILES>
CCNCNC(=O)c1ccccc1

> <Canonical_QSARr>
CCNCNC(=O)c1ccccc1

> <InChI_Code_QSARr>
InChI=1S/C10H14N2O/c1-2-11-8-12-10(13)9-6-4-3-5-7-9/h3-7,11H,2,8H2,1H3,(H,12,13)

> <InChI Key_QSARr>
MUDXIWKFOCILIO-UHFFFAOYSA-N

> <Salt_Solvent>
?

> <WS Temperature>
25

> <WS Reference>
BEILSTEIN

> <dsstox_substance_id>


> <LogMolar>
-0.0749

$$$$
52663-60-2
  -INDIGO-01081615412D

 22 23  0  0  0  0  0  0  0  0999 V2000
    0.0001    0.0000    0.0000 C   0  0  0  0  0  0  0  0  0  0  0  0
    0.8001   -1.3856    0.0000 C   0  0  0  0  0  0  0  0  0  0  0  0
    0.0001   -2.7713    0.0000 Cl  0  0  0  0  0  0  0  0  0  0  0  0
    2.4000   -1.3856    0.0000 C   0  0  0  0  0  0  0  0  0  0  0  0
    3.2000   -2.7713    0.0000 H   0  0  0  0  0  0  0  0  0  0  0  0
    3.2000    0.0000    0.0000 C   0  0  0  0  0  0  0  0  0  0  0  0
    4.8000    0.0000    0.0000 H   0  0  0  0  0  0  0  0  0  0  0  0
    2.4000    1.3856    0.0000 C   0  0  0  0  0  0  0  0  0  0  0  0
    3.2000    2.7713    0.0000 Cl  0  0  0  0  0  0  0  0  0  0  0  0
    0.8001    1.3856    0.0000 C   0  0  0  0  0  0  0  0  0  0  0  0
    0.0001    2.7713    0.0000 Cl  0  0  0  0  0  0  0  0  0  0  0  0
   -1.6001   -0.0000    0.0000 C   0  0  0  0  0  0  0  0  0  0  0  0
   -2.4001    1.3856    0.0000 C   0  0  0  0  0  0  0  0  0  0  0  0
   -1.6001    2.7713    0.0000 H   0  0  0  0  0  0  0  0  0  0  0  0
   -4.0000    1.3856    0.0000 C   0  0  0  0  0  0  0  0  0  0  0  0
   -4.8000    2.7713    0.0000 H   0  0  0  0  0  0  0  0  0  0  0  0
   -4.8000   -0.0000    0.0000 C   0  0  0  0  0  0  0  0  0  0  0  0
   -6.4000   -0.0000    0.0000 H   0  0  0  0  0  0  0  0  0  0  0  0
   -4.0000   -1.3856    0.0000 C   0  0  0  0  0  0  0  0  0  0  0  0
   -4.8000   -2.7713    0.0000 Cl  0  0  0  0  0  0  0  0  0  0  0  0
   -2.4001   -1.3856    0.0000 C   0  0  0  0  0  0  0  0  0  0  0  0
   -1.6001   -2.7713    0.0000 Cl  0  0  0  0  0  0  0  0  0  0  0  0
  1  2  4  0  0  0  0
  2  3  1  0  0  0  0
  2  4  4  0  0  0  0
  4  5  1  0  0  0  0
  4  6  4  0  0  0  0
  6  7  1  0  0  0  0
  6  8  4  0  0  0  0
  8  9  1  0  0  0  0
  8 10  4  0  0  0  0
 10  1  4  0  0  0  0
 10 11  1  0  0  0  0
  1 12  1  0  0  0  0
 12 13  4  0  0  0  0
 13 14  1  0  0  0  0
 13 15  4  0  0  0  0
 15 16  1  0  0  0  0
 15 17  4  0  0  0  0
 17 18  1  0  0  0  0
 17 19  4  0  0  0  0
 19 20  1  0  0  0  0
 19 21  4  0  0  0  0
 21 12  4  0  0  0  0
 21 22  1  0  0  0  0
M  END
> <CAS>
52663-60-2

> <NAME>
2,2',3,3',6-PENTACHLOROBIPHENYL

> <preferred_name>
2,2',3,3',6-Pentachlorobiphenyl

> <iupac>
1,2,4-trichloro-3-(2,3-dichlorophenyl)benzene

> <SMILES>
Clc1c(-c2cccc(Cl)c2Cl)c(Cl)ccc1Cl

> <Canonical_QSARr>
Clc1c(-c2cccc(Cl)c2Cl)c(Cl)ccc1Cl

> <InChI_Code_QSARr>
InChI=1S/C12H5Cl5/c13-7-4-5-9(15)12(17)10(7)6-2-1-3-8(14)11(6)16/h1-5H

> <InChI Key_QSARr>
QVWUJLANSDKRAH-UHFFFAOYSA-N

> <Salt_Solvent>
?

> <WS Temperature>
25

> <WS Reference>
EPA

> <dsstox_substance_id>
DTXSID0073536

> <LogMolar>
-6.7798

$$$$
52663-65-7
  -INDIGO-01081615412D

 22 23  0  0  0  0  0  0  0  0999 V2000
    3.2000    0.0000    0.0000 C   0  0  0  0  0  0  0  0  0  0  0  0
    2.4000    1.3856    0.0000 C   0  0  0  0  0  0  0  0  0  0  0  0
    3.2000    2.7713    0.0000 Cl  0  0  0  0  0  0  0  0  0  0  0  0
    0.8001    1.3856    0.0000 C   0  0  0  0  0  0  0  0  0  0  0  0
    0.0001    2.7713    0.0000 Cl  0  0  0  0  0  0  0  0  0  0  0  0
    0.0001    0.0000    0.0000 C   0  0  0  0  0  0  0  0  0  0  0  0
   -1.6001   -0.0000    0.0000 C   0  0  0  0  0  0  0  0  0  0  0  0
   -2.4001    1.3856    0.0000 C   0  0  0  0  0  0  0  0  0  0  0  0
   -1.6001    2.7713    0.0000 Cl  0  0  0  0  0  0  0  0  0  0  0  0
   -4.0000    1.3856    0.0000 C   0  0  0  0  0  0  0  0  0  0  0  0
   -4.8000    2.7713    0.0000 H   0  0  0  0  0  0  0  0  0  0  0  0
   -4.8000   -0.0000    0.0000 C   0  0  0  0  0  0  0  0  0  0  0  0
   -6.4000   -0.0000    0.0000 Cl  0  0  0  0  0  0  0  0  0  0  0  0
   -4.0000   -1.3856    0.0000 C   0  0  0  0  0  0  0  0  0  0  0  0
   -4.8000   -2.7713    0.0000 Cl  0  0  0  0  0  0  0  0  0  0  0  0
   -2.4001   -1.3856    0.0000 C   0  0  0  0  0  0  0  0  0  0  0  0
   -1.6001   -2.7713    0.0000 Cl  0  0  0  0  0  0  0  0  0  0  0  0
    0.8001   -1.3856    0.0000 C   0  0  0  0  0  0  0  0  0  0  0  0
    0.0001   -2.7713    0.0000 Cl  0  0  0  0  0  0  0  0  0  0  0  0
    2.4000   -1.3856    0.0000 C   0  0  0  0  0  0  0  0  0  0  0  0
    3.2000   -2.7713    0.0000 H   0  0  0  0  0  0  0  0  0  0  0  0
    4.8000    0.0000    0.0000 H   0  0  0  0  0  0  0  0  0  0  0  0
  1  2  4  0  0  0  0
  2  3  1  0  0  0  0
  2  4  4  0  0  0  0
  4  5  1  0  0  0  0
  4  6  4  0  0  0  0
  6  7  1  0  0  0  0
  7  8  4  0  0  0  0
  8  9  1  0  0  0  0
  8 10  4  0  0  0  0
 10 11  1  0  0  0  0
 10 12  4  0  0  0  0
 12 13  1  0  0  0  0
 12 14  4  0  0  0  0
 14 15  1  0  0  0  0
 14 16  4  0  0  0  0
 16  7  4  0  0  0  0
 16 17  1  0  0  0  0
  6 18  4  0  0  0  0
 18 19  1  0  0  0  0
 18 20  4  0  0  0  0
 20  1  4  0  0  0  0
 20 21  1  0  0  0  0
  1 22  1  0  0  0  0
M  END
> <CAS>
52663-65-7

> <NAME>
1,1'-Biphenyl, 2,2',3,3',4,6,6'-heptachloro-

> <preferred_name>
2,2',3,3',4,6,6'-Heptachlorobiphenyl

> <iupac>
1,2,3,5-tetrachloro-4-(2,3,6-trichlorophenyl)benzene

> <SMILES>
Clc1c(Cl)c(-c2c(Cl)c(Cl)ccc2Cl)c(Cl)cc1Cl

> <Canonical_QSARr>
Clc1c(Cl)c(-c2c(Cl)c(Cl)ccc2Cl)c(Cl)cc1Cl

> <InChI_Code_QSARr>
InChI=1S/C12H3Cl7/c13-4-1-2-5(14)10(17)8(4)9-6(15)3-7(16)11(18)12(9)19/h1-3H

> <InChI Key_QSARr>
HGMYRFJAJNYBRX-UHFFFAOYSA-N

> <Salt_Solvent>
?

> <WS Temperature>
25

> <WS Reference>
PATIL,GS (1991)

> <dsstox_substance_id>
DTXSID7074161

> <LogMolar>
-8.1501

$$$$
52663-70-4
  -INDIGO-01081615412D

 22 23  0  0  0  0  0  0  0  0999 V2000
    0.0001    0.0000    0.0000 C   0  0  0  0  0  0  0  0  0  0  0  0
    0.8001   -1.3856    0.0000 C   0  0  0  0  0  0  0  0  0  0  0  0
    0.0001   -2.7713    0.0000 Cl  0  0  0  0  0  0  0  0  0  0  0  0
    2.4000   -1.3856    0.0000 C   0  0  0  0  0  0  0  0  0  0  0  0
    3.2000   -2.7713    0.0000 Cl  0  0  0  0  0  0  0  0  0  0  0  0
    3.2000    0.0000    0.0000 C   0  0  0  0  0  0  0  0  0  0  0  0
    4.8000    0.0000    0.0000 H   0  0  0  0  0  0  0  0  0  0  0  0
    2.4000    1.3856    0.0000 C   0  0  0  0  0  0  0  0  0  0  0  0
    3.2000    2.7713    0.0000 Cl  0  0  0  0  0  0  0  0  0  0  0  0
    0.8001    1.3856    0.0000 C   0  0  0  0  0  0  0  0  0  0  0  0
    0.0001    2.7713    0.0000 Cl  0  0  0  0  0  0  0  0  0  0  0  0
   -1.6001   -0.0000    0.0000 C   0  0  0  0  0  0  0  0  0  0  0  0
   -2.4001    1.3856    0.0000 C   0  0  0  0  0  0  0  0  0  0  0  0
   -1.6001    2.7713    0.0000 H   0  0  0  0  0  0  0  0  0  0  0  0
   -4.0000    1.3856    0.0000 C   0  0  0  0  0  0  0  0  0  0  0  0
   -4.8000    2.7713    0.0000 H   0  0  0  0  0  0  0  0  0  0  0  0
   -4.8000   -0.0000    0.0000 C   0  0  0  0  0  0  0  0  0  0  0  0
   -6.4000   -0.0000    0.0000 Cl  0  0  0  0  0  0  0  0  0  0  0  0
   -4.0000   -1.3856    0.0000 C   0  0  0  0  0  0  0  0  0  0  0  0
   -4.8000   -2.7713    0.0000 Cl  0  0  0  0  0  0  0  0  0  0  0  0
   -2.4001   -1.3856    0.0000 C   0  0  0  0  0  0  0  0  0  0  0  0
   -1.6001   -2.7713    0.0000 Cl  0  0  0  0  0  0  0  0  0  0  0  0
  1  2  4  0  0  0  0
  2  3  1  0  0  0  0
  2  4  4  0  0  0  0
  4  5  1  0  0  0  0
  4  6  4  0  0  0  0
  6  7  1  0  0  0  0
  6  8  4  0  0  0  0
  8  9  1  0  0  0  0
  8 10  4  0  0  0  0
 10  1  4  0  0  0  0
 10 11  1  0  0  0  0
  1 12  1  0  0  0  0
 12 13  4  0  0  0  0
 13 14  1  0  0  0  0
 13 15  4  0  0  0  0
 15 16  1  0  0  0  0
 15 17  4  0  0  0  0
 17 18  1  0  0  0  0
 17 19  4  0  0  0  0
 19 20  1  0  0  0  0
 19 21  4  0  0  0  0
 21 12  4  0  0  0  0
 21 22  1  0  0  0  0
M  END
> <CAS>
52663-70-4

> <NAME>
1,1'-Biphenyl, 2,2',3,3',4,5',6'-heptachloro-

> <preferred_name>
2,2',3,3',4,5',6'-Heptachlorobiphenyl

> <iupac>
1,2,4,5-tetrachloro-3-(2,3,4-trichlorophenyl)benzene

> <SMILES>
Clc1c(Cl)c(ccc1Cl)-c1c(Cl)c(Cl)cc(Cl)c1Cl

> <Canonical_QSARr>
Clc1c(Cl)c(ccc1Cl)-c1c(Cl)c(Cl)cc(Cl)c1Cl

> <InChI_Code_QSARr>
InChI=1S/C12H3Cl7/c13-5-2-1-4(9(16)12(5)19)8-10(17)6(14)3-7(15)11(8)18/h1-3H

> <InChI Key_QSARr>
CXOYNJAHPUASHN-UHFFFAOYSA-N

> <Salt_Solvent>
?

> <WS Temperature>
25

> <WS Reference>
PATIL,GS (1991)

> <dsstox_substance_id>
DTXSID2074164

> <LogMolar>
-8.42

$$$$
52663-74-8
  -INDIGO-01081615412D

 22 23  0  0  0  0  0  0  0  0999 V2000
    0.0001    0.0000    0.0000 C   0  0  0  0  0  0  0  0  0  0  0  0
    0.8001   -1.3856    0.0000 C   0  0  0  0  0  0  0  0  0  0  0  0
    0.0001   -2.7713    0.0000 H   0  0  0  0  0  0  0  0  0  0  0  0
    2.4000   -1.3856    0.0000 C   0  0  0  0  0  0  0  0  0  0  0  0
    3.2000   -2.7713    0.0000 Cl  0  0  0  0  0  0  0  0  0  0  0  0
    3.2000    0.0000    0.0000 C   0  0  0  0  0  0  0  0  0  0  0  0
    4.8000    0.0000    0.0000 Cl  0  0  0  0  0  0  0  0  0  0  0  0
    2.4000    1.3856    0.0000 C   0  0  0  0  0  0  0  0  0  0  0  0
    3.2000    2.7713    0.0000 Cl  0  0  0  0  0  0  0  0  0  0  0  0
    0.8001    1.3856    0.0000 C   0  0  0  0  0  0  0  0  0  0  0  0
    0.0001    2.7713    0.0000 Cl  0  0  0  0  0  0  0  0  0  0  0  0
   -1.6001   -0.0000    0.0000 C   0  0  0  0  0  0  0  0  0  0  0  0
   -2.4001    1.3856    0.0000 C   0  0  0  0  0  0  0  0  0  0  0  0
   -1.6001    2.7713    0.0000 H   0  0  0  0  0  0  0  0  0  0  0  0
   -4.0000    1.3856    0.0000 C   0  0  0  0  0  0  0  0  0  0  0  0
   -4.8000    2.7713    0.0000 Cl  0  0  0  0  0  0  0  0  0  0  0  0
   -4.8000   -0.0000    0.0000 C   0  0  0  0  0  0  0  0  0  0  0  0
   -6.4000   -0.0000    0.0000 H   0  0  0  0  0  0  0  0  0  0  0  0
   -4.0000   -1.3856    0.0000 C   0  0  0  0  0  0  0  0  0  0  0  0
   -4.8000   -2.7713    0.0000 Cl  0  0  0  0  0  0  0  0  0  0  0  0
   -2.4001   -1.3856    0.0000 C   0  0  0  0  0  0  0  0  0  0  0  0
   -1.6001   -2.7713    0.0000 Cl  0  0  0  0  0  0  0  0  0  0  0  0
  1  2  4  0  0  0  0
  2  3  1  0  0  0  0
  2  4  4  0  0  0  0
  4  5  1  0  0  0  0
  4  6  4  0  0  0  0
  6  7  1  0  0  0  0
  6  8  4  0  0  0  0
  8  9  1  0  0  0  0
  8 10  4  0  0  0  0
 10  1  4  0  0  0  0
 10 11  1  0  0  0  0
  1 12  1  0  0  0  0
 12 13  4  0  0  0  0
 13 14  1  0  0  0  0
 13 15  4  0  0  0  0
 15 16  1  0  0  0  0
 15 17  4  0  0  0  0
 17 18  1  0  0  0  0
 17 19  4  0  0  0  0
 19 20  1  0  0  0  0
 19 21  4  0  0  0  0
 21 12  4  0  0  0  0
 21 22  1  0  0  0  0
M  END
> <CAS>
52663-74-8

> <NAME>
2,2',3,3',4,5,5'-HEPTACHLOROBIPHENYL

> <preferred_name>
2,2',3,3',4,5,5'-Heptachlorobiphenyl

> <iupac>
1,2,3,4-tetrachloro-5-(2,3,5-trichlorophenyl)benzene

> <SMILES>
Clc1cc(Cl)c(Cl)c(c1)-c1cc(Cl)c(Cl)c(Cl)c1Cl

> <Canonical_QSARr>
Clc1cc(Cl)c(Cl)c(c1)-c1cc(Cl)c(Cl)c(Cl)c1Cl

> <InChI_Code_QSARr>
InChI=1S/C12H3Cl7/c13-4-1-5(9(16)7(14)2-4)6-3-8(15)11(18)12(19)10(6)17/h1-3H

> <InChI Key_QSARr>
HOPMUCXYRNOABF-UHFFFAOYSA-N

> <Salt_Solvent>
?

> <WS Temperature>
25

> <WS Reference>
PATIL,GS (1991)

> <dsstox_substance_id>
DTXSID7074167

> <LogMolar>
-9.1

$$$$
52663-78-2
  -INDIGO-01081615412D

 22 23  0  0  0  0  0  0  0  0999 V2000
    0.0001    0.0000    0.0000 C   0  0  0  0  0  0  0  0  0  0  0  0
    0.8001   -1.3856    0.0000 C   0  0  0  0  0  0  0  0  0  0  0  0
    0.0001   -2.7713    0.0000 Cl  0  0  0  0  0  0  0  0  0  0  0  0
    2.4000   -1.3856    0.0000 C   0  0  0  0  0  0  0  0  0  0  0  0
    3.2000   -2.7713    0.0000 Cl  0  0  0  0  0  0  0  0  0  0  0  0
    3.2000    0.0000    0.0000 C   0  0  0  0  0  0  0  0  0  0  0  0
    4.8000    0.0000    0.0000 Cl  0  0  0  0  0  0  0  0  0  0  0  0
    2.4000    1.3856    0.0000 C   0  0  0  0  0  0  0  0  0  0  0  0
    3.2000    2.7713    0.0000 Cl  0  0  0  0  0  0  0  0  0  0  0  0
    0.8001    1.3856    0.0000 C   0  0  0  0  0  0  0  0  0  0  0  0
    0.0001    2.7713    0.0000 Cl  0  0  0  0  0  0  0  0  0  0  0  0
   -1.6001   -0.0000    0.0000 C   0  0  0  0  0  0  0  0  0  0  0  0
   -2.4001    1.3856    0.0000 C   0  0  0  0  0  0  0  0  0  0  0  0
   -1.6001    2.7713    0.0000 H   0  0  0  0  0  0  0  0  0  0  0  0
   -4.0000    1.3856    0.0000 C   0  0  0  0  0  0  0  0  0  0  0  0
   -4.8000    2.7713    0.0000 H   0  0  0  0  0  0  0  0  0  0  0  0
   -4.8000   -0.0000    0.0000 C   0  0  0  0  0  0  0  0  0  0  0  0
   -6.4000   -0.0000    0.0000 Cl  0  0  0  0  0  0  0  0  0  0  0  0
   -4.0000   -1.3856    0.0000 C   0  0  0  0  0  0  0  0  0  0  0  0
   -4.8000   -2.7713    0.0000 Cl  0  0  0  0  0  0  0  0  0  0  0  0
   -2.4001   -1.3856    0.0000 C   0  0  0  0  0  0  0  0  0  0  0  0
   -1.6001   -2.7713    0.0000 Cl  0  0  0  0  0  0  0  0  0  0  0  0
  1  2  4  0  0  0  0
  2  3  1  0  0  0  0
  2  4  4  0  0  0  0
  4  5  1  0  0  0  0
  4  6  4  0  0  0  0
  6  7  1  0  0  0  0
  6  8  4  0  0  0  0
  8  9  1  0  0  0  0
  8 10  4  0  0  0  0
 10  1  4  0  0  0  0
 10 11  1  0  0  0  0
  1 12  1  0  0  0  0
 12 13  4  0  0  0  0
 13 14  1  0  0  0  0
 13 15  4  0  0  0  0
 15 16  1  0  0  0  0
 15 17  4  0  0  0  0
 17 18  1  0  0  0  0
 17 19  4  0  0  0  0
 19 20  1  0  0  0  0
 19 21  4  0  0  0  0
 21 12  4  0  0  0  0
 21 22  1  0  0  0  0
M  END
> <CAS>
52663-78-2

> <NAME>
2,2',3,3',4,4',5,6-OCTACHLOROBIPHENYL

> <preferred_name>
2,2',3,3',4,4',5,6-Octachlorobiphenyl

> <iupac>
1,2,3,4,5-pentachloro-6-(2,3,4-trichlorophenyl)benzene

> <SMILES>
Clc1ccc(-c2c(Cl)c(Cl)c(Cl)c(Cl)c2Cl)c(Cl)c1Cl

> <Canonical_QSARr>
Clc1ccc(-c2c(Cl)c(Cl)c(Cl)c(Cl)c2Cl)c(Cl)c1Cl

> <InChI_Code_QSARr>
InChI=1S/C12H2Cl8/c13-4-2-1-3(6(14)7(4)15)5-8(16)10(18)12(20)11(19)9(5)17/h1-2H

> <InChI Key_QSARr>
JAHJITLFJSDRCG-UHFFFAOYSA-N

> <Salt_Solvent>
?

> <WS Temperature>
25

> <WS Reference>
PATIL,GS (1991)

> <dsstox_substance_id>
DTXSID1074171

> <LogMolar>
-9.29

$$$$
52712-05-7
  -INDIGO-01081615412D

 22 23  0  0  0  0  0  0  0  0999 V2000
    0.0001    0.0000    0.0000 C   0  0  0  0  0  0  0  0  0  0  0  0
    0.8001   -1.3856    0.0000 C   0  0  0  0  0  0  0  0  0  0  0  0
    0.0001   -2.7713    0.0000 Cl  0  0  0  0  0  0  0  0  0  0  0  0
    2.4000   -1.3856    0.0000 C   0  0  0  0  0  0  0  0  0  0  0  0
    3.2000   -2.7713    0.0000 Cl  0  0  0  0  0  0  0  0  0  0  0  0
    3.2000    0.0000    0.0000 C   0  0  0  0  0  0  0  0  0  0  0  0
    4.8000    0.0000    0.0000 Cl  0  0  0  0  0  0  0  0  0  0  0  0
    2.4000    1.3856    0.0000 C   0  0  0  0  0  0  0  0  0  0  0  0
    3.2000    2.7713    0.0000 Cl  0  0  0  0  0  0  0  0  0  0  0  0
    0.8001    1.3856    0.0000 C   0  0  0  0  0  0  0  0  0  0  0  0
    0.0001    2.7713    0.0000 Cl  0  0  0  0  0  0  0  0  0  0  0  0
   -1.6001   -0.0000    0.0000 C   0  0  0  0  0  0  0  0  0  0  0  0
   -2.4001    1.3856    0.0000 C   0  0  0  0  0  0  0  0  0  0  0  0
   -1.6001    2.7713    0.0000 H   0  0  0  0  0  0  0  0  0  0  0  0
   -4.0000    1.3856    0.0000 C   0  0  0  0  0  0  0  0  0  0  0  0
   -4.8000    2.7713    0.0000 Cl  0  0  0  0  0  0  0  0  0  0  0  0
   -4.8000   -0.0000    0.0000 C   0  0  0  0  0  0  0  0  0  0  0  0
   -6.4000   -0.0000    0.0000 H   0  0  0  0  0  0  0  0  0  0  0  0
   -4.0000   -1.3856    0.0000 C   0  0  0  0  0  0  0  0  0  0  0  0
   -4.8000   -2.7713    0.0000 H   0  0  0  0  0  0  0  0  0  0  0  0
   -2.4001   -1.3856    0.0000 C   0  0  0  0  0  0  0  0  0  0  0  0
   -1.6001   -2.7713    0.0000 Cl  0  0  0  0  0  0  0  0  0  0  0  0
  1  2  4  0  0  0  0
  2  3  1  0  0  0  0
  2  4  4  0  0  0  0
  4  5  1  0  0  0  0
  4  6  4  0  0  0  0
  6  7  1  0  0  0  0
  6  8  4  0  0  0  0
  8  9  1  0  0  0  0
  8 10  4  0  0  0  0
 10  1  4  0  0  0  0
 10 11  1  0  0  0  0
  1 12  1  0  0  0  0
 12 13  4  0  0  0  0
 13 14  1  0  0  0  0
 13 15  4  0  0  0  0
 15 16  1  0  0  0  0
 15 17  4  0  0  0  0
 17 18  1  0  0  0  0
 17 19  4  0  0  0  0
 19 20  1  0  0  0  0
 19 21  4  0  0  0  0
 21 12  4  0  0  0  0
 21 22  1  0  0  0  0
M  END
> <CAS>
52712-05-7

> <NAME>
2,2',3,4,5,5',6-HEPTACHLOROBIPHENYL

> <preferred_name>
2,2',3,4,5,5',6-Heptachlorobiphenyl

> <iupac>
1,2,3,4,5-pentachloro-6-(2,5-dichlorophenyl)benzene

> <SMILES>
Clc1cc(-c2c(Cl)c(Cl)c(Cl)c(Cl)c2Cl)c(Cl)cc1

> <Canonical_QSARr>
Clc1cc(-c2c(Cl)c(Cl)c(Cl)c(Cl)c2Cl)c(Cl)cc1

> <InChI_Code_QSARr>
InChI=1S/C12H3Cl7/c13-4-1-2-6(14)5(3-4)7-8(15)10(17)12(19)11(18)9(7)16/h1-3H

> <InChI Key_QSARr>
PYZHTHZEHQHHEN-UHFFFAOYSA-N

> <Salt_Solvent>
?

> <WS Temperature>
20

> <WS Reference>
YALKOWSKY,SH & DANNENFELSER,RM (1992)

> <dsstox_substance_id>
DTXSID1074175

> <LogMolar>
-7.8598

$$$$
52888-80-9
  -INDIGO-01081615412D

 38 38  0  0  0  0  0  0  0  0999 V2000
    2.3999    4.1569    0.0000 C   0  0  0  0  0  0  0  0  0  0  0  0
    1.5999    2.7712    0.0000 C   0  0  0  0  0  0  0  0  0  0  0  0
    0.8001    1.3856    0.0000 C   0  0  0  0  0  0  0  0  0  0  0  0
    0.0000   -0.0001    0.0000 N   0  0  0  0  0  0  0  0  0  0  0  0
   -1.6000   -0.0001    0.0000 C   0  0  0  0  0  0  0  0  0  0  0  0
   -2.4001    1.3856    0.0000 S   0  0  0  0  0  0  0  0  0  0  0  0
   -3.9999    1.3856    0.0000 C   0  0  0  0  0  0  0  0  0  0  0  0
   -5.6000    1.3856    0.0000 C   0  0  0  0  0  0  0  0  0  0  0  0
   -6.4000    2.7712    0.0000 C   0  0  0  0  0  0  0  0  0  0  0  0
   -5.6000    4.1569    0.0000 H   0  0  0  0  0  0  0  0  0  0  0  0
   -8.0001    2.7712    0.0000 C   0  0  0  0  0  0  0  0  0  0  0  0
   -8.7999    4.1569    0.0000 H   0  0  0  0  0  0  0  0  0  0  0  0
   -8.7999    1.3856    0.0000 C   0  0  0  0  0  0  0  0  0  0  0  0
  -10.4000    1.3856    0.0000 H   0  0  0  0  0  0  0  0  0  0  0  0
   -8.0001   -0.0001    0.0000 C   0  0  0  0  0  0  0  0  0  0  0  0
   -8.7999   -1.3856    0.0000 H   0  0  0  0  0  0  0  0  0  0  0  0
   -6.4000   -0.0001    0.0000 C   0  0  0  0  0  0  0  0  0  0  0  0
   -5.6000   -1.3856    0.0000 H   0  0  0  0  0  0  0  0  0  0  0  0
   -3.9999   -0.2144    0.0000 H   0  0  0  0  0  0  0  0  0  0  0  0
   -3.9999    2.9857    0.0000 H   0  0  0  0  0  0  0  0  0  0  0  0
   -2.4001   -1.3856    0.0000 O   0  0  0  0  0  0  0  0  0  0  0  0
    0.8001   -1.3856    0.0000 C   0  0  0  0  0  0  0  0  0  0  0  0
    1.5999   -2.7712    0.0000 C   0  0  0  0  0  0  0  0  0  0  0  0
    2.3999   -4.1569    0.0000 C   0  0  0  0  0  0  0  0  0  0  0  0
    3.2000   -5.5426    0.0000 H   0  0  0  0  0  0  0  0  0  0  0  0
    4.0000   -4.1569    0.0000 H   0  0  0  0  0  0  0  0  0  0  0  0
    1.6001   -5.5426    0.0000 H   0  0  0  0  0  0  0  0  0  0  0  0
    2.9857   -1.9713    0.0000 H   0  0  0  0  0  0  0  0  0  0  0  0
    0.2143   -3.5713    0.0000 H   0  0  0  0  0  0  0  0  0  0  0  0
    2.1857   -0.5857    0.0000 H   0  0  0  0  0  0  0  0  0  0  0  0
   -0.5855   -2.1856    0.0000 H   0  0  0  0  0  0  0  0  0  0  0  0
   -0.5855    2.1856    0.0000 H   0  0  0  0  0  0  0  0  0  0  0  0
    2.1857    0.5857    0.0000 H   0  0  0  0  0  0  0  0  0  0  0  0
    2.9857    1.9713    0.0000 H   0  0  0  0  0  0  0  0  0  0  0  0
    0.2143    3.5713    0.0000 H   0  0  0  0  0  0  0  0  0  0  0  0
    3.2000    5.5426    0.0000 H   0  0  0  0  0  0  0  0  0  0  0  0
    4.0000    4.1569    0.0000 H   0  0  0  0  0  0  0  0  0  0  0  0
    1.5999    5.5426    0.0000 H   0  0  0  0  0  0  0  0  0  0  0  0
  1  2  1  0  0  0  0
  2  3  1  0  0  0  0
  3  4  1  0  0  0  0
  4  5  1  0  0  0  0
  5  6  1  0  0  0  0
  6  7  1  0  0  0  0
  7  8  1  0  0  0  0
  8  9  4  0  0  0  0
  9 10  1  0  0  0  0
  9 11  4  0  0  0  0
 11 12  1  0  0  0  0
 11 13  4  0  0  0  0
 13 14  1  0  0  0  0
 13 15  4  0  0  0  0
 15 16  1  0  0  0  0
 15 17  4  0  0  0  0
 17  8  4  0  0  0  0
 17 18  1  0  0  0  0
  7 19  1  0  0  0  0
  7 20  1  0  0  0  0
  5 21  2  0  0  0  0
  4 22  1  0  0  0  0
 22 23  1  0  0  0  0
 23 24  1  0  0  0  0
 24 25  1  0  0  0  0
 24 26  1  0  0  0  0
 24 27  1  0  0  0  0
 23 28  1  0  0  0  0
 23 29  1  0  0  0  0
 22 30  1  0  0  0  0
 22 31  1  0  0  0  0
  3 32  1  0  0  0  0
  3 33  1  0  0  0  0
  2 34  1  0  0  0  0
  2 35  1  0  0  0  0
  1 36  1  0  0  0  0
  1 37  1  0  0  0  0
  1 38  1  0  0  0  0
M  END
> <CAS>
52888-80-9

> <NAME>
PROSULFOCARB

> <preferred_name>
Prosulfocarb

> <iupac>
S-benzyl dipropylcarbamothioate

> <SMILES>
CCCN(CCC)C(=O)SCc1ccccc1

> <Canonical_QSARr>
CCCN(CCC)C(=O)SCc1ccccc1

> <InChI_Code_QSARr>
InChI=1S/C14H21NOS/c1-3-10-15(11-4-2)14(16)17-12-13-8-6-5-7-9-13/h5-9H,3-4,10-12H2,1-2H3

> <InChI Key_QSARr>
NQLVQOSNDJXLKG-UHFFFAOYSA-N

> <Salt_Solvent>
?

> <WS Temperature>
20

> <WS Reference>
TOMLIN,C (1994)

> <dsstox_substance_id>
DTXSID3058119

> <LogMolar>
-4.2798

$$$$
53112-28-0
  -INDIGO-01081615412D

 28 29  0  0  0  0  0  0  0  0999 V2000
   -4.1569    0.8000    0.0000 N   0  0  0  1  0  0  0  0  0  0  0  0
   -5.5426   -0.0001    0.0000 C   0  0  0  0  0  0  0  0  0  0  0  0
   -6.9281    0.8000    0.0000 C   0  0  0  0  0  0  0  0  0  0  0  0
   -8.3138    1.5999    0.0000 H   0  0  0  0  0  0  0  0  0  0  0  0
   -6.9281    2.4000    0.0000 H   0  0  0  0  0  0  0  0  0  0  0  0
   -8.3138   -0.0001    0.0000 H   0  0  0  0  0  0  0  0  0  0  0  0
   -5.5426   -1.6001    0.0000 C   0  0  0  0  0  0  0  0  0  0  0  0
   -6.9281   -2.4000    0.0000 H   0  0  0  0  0  0  0  0  0  0  0  0
   -4.1569   -2.4000    0.0000 C   0  0  0  0  0  0  0  0  0  0  0  0
   -4.1569   -4.0000    0.0000 C   0  0  0  0  0  0  0  0  0  0  0  0
   -4.1569   -5.6000    0.0000 H   0  0  0  0  0  0  0  0  0  0  0  0
   -2.7712   -4.7999    0.0000 H   0  0  0  0  0  0  0  0  0  0  0  0
   -5.5426   -4.7999    0.0000 H   0  0  0  0  0  0  0  0  0  0  0  0
   -2.7712   -1.6001    0.0000 N   0  0  0  1  0  0  0  0  0  0  0  0
   -2.7712   -0.0001    0.0000 C   0  0  0  0  0  0  0  0  0  0  0  0
   -1.3857    0.8000    0.0000 N   0  0  0  0  0  0  0  0  0  0  0  0
    0.0000    0.0001    0.0000 C   0  0  0  0  0  0  0  0  0  0  0  0
    0.0000   -1.5999    0.0000 C   0  0  0  0  0  0  0  0  0  0  0  0
   -1.3857   -2.4000    0.0000 H   0  0  0  0  0  0  0  0  0  0  0  0
    1.3857   -2.4000    0.0000 C   0  0  0  0  0  0  0  0  0  0  0  0
    1.3857   -4.0000    0.0000 H   0  0  0  0  0  0  0  0  0  0  0  0
    2.7712   -1.5999    0.0000 C   0  0  0  0  0  0  0  0  0  0  0  0
    4.1569   -2.4000    0.0000 H   0  0  0  0  0  0  0  0  0  0  0  0
    2.7712    0.0001    0.0000 C   0  0  0  0  0  0  0  0  0  0  0  0
    4.1569    0.8000    0.0000 H   0  0  0  0  0  0  0  0  0  0  0  0
    1.3857    0.8000    0.0000 C   0  0  0  0  0  0  0  0  0  0  0  0
    1.3857    2.4000    0.0000 H   0  0  0  0  0  0  0  0  0  0  0  0
   -1.3857    2.4000    0.0000 H   0  0  0  0  0  0  0  0  0  0  0  0
  1  2  4  0  0  0  0
  2  3  1  0  0  0  0
  3  4  1  0  0  0  0
  3  5  1  0  0  0  0
  3  6  1  0  0  0  0
  2  7  4  0  0  0  0
  7  8  1  0  0  0  0
  7  9  4  0  0  0  0
  9 10  1  0  0  0  0
 10 11  1  0  0  0  0
 10 12  1  0  0  0  0
 10 13  1  0  0  0  0
  9 14  4  0  0  0  0
 14 15  4  0  0  0  0
 15  1  4  0  0  0  0
 15 16  1  0  0  0  0
 16 17  1  0  0  0  0
 17 18  4  0  0  0  0
 18 19  1  0  0  0  0
 18 20  4  0  0  0  0
 20 21  1  0  0  0  0
 20 22  4  0  0  0  0
 22 23  1  0  0  0  0
 22 24  4  0  0  0  0
 24 25  1  0  0  0  0
 24 26  4  0  0  0  0
 26 17  4  0  0  0  0
 26 27  1  0  0  0  0
 16 28  1  0  0  0  0
M  END
> <CAS>
53112-28-0

> <NAME>
Pyrimethanil

> <preferred_name>
Pyrimethanil

> <iupac>
4,6-dimethyl-N-phenylpyrimidin-2-amine

> <SMILES>
Cc1cc(C)[n]c(Nc2ccccc2)[n]1

> <Canonical_QSARr>
Cc1cc(C)[n]c(Nc2ccccc2)[n]1

> <InChI_Code_QSARr>
InChI=1S/C12H13N3/c1-9-8-10(2)14-12(13-9)15-11-6-4-3-5-7-11/h3-8H,1-2H3,(H,13,14,15)

> <InChI Key_QSARr>
ZLIBICFPKPWGIZ-UHFFFAOYSA-N

> <Salt_Solvent>
?

> <WS Temperature>
25

> <WS Reference>
TOMLIN,C (1997); pH 6.1

> <dsstox_substance_id>
DTXSID8034877

> <LogMolar>
-3.2166

$$$$
53744-47-1
  -INDIGO-01081615412D

 13 13  0  0  0  0  0  0  0  0999 V2000
   -1.4617    0.6508    0.0000 S   0  0  0  0  0  0  0  0  0  0  0  0
    0.0001    0.0000    0.0000 C   0  0  0  0  0  0  0  0  0  0  0  0
    0.3326   -1.5650    0.0000 N   0  0  0  1  0  0  0  0  0  0  0  0
    1.9239   -1.7323    0.0000 C   0  0  0  0  0  0  0  0  0  0  0  0
    2.7239   -3.1179    0.0000 H   0  0  0  0  0  0  0  0  0  0  0  0
    2.5747   -0.2706    0.0000 C   0  0  0  0  0  0  0  0  0  0  0  0
    4.1397    0.0621    0.0000 H   0  0  0  0  0  0  0  0  0  0  0  0
    1.3856    0.8000    0.0000 N   0  0  0  1  0  0  0  0  0  0  0  0
    1.5528    2.3912    0.0000 H   0  0  0  0  0  0  0  0  0  0  0  0
   -2.1124   -0.8109    0.0000 O   0  0  0  0  0  0  0  0  0  0  0  0
   -0.8109    2.1125    0.0000 O   0  0  0  0  0  0  0  0  0  0  0  0
   -2.9234    1.3016    0.0000 O   0  0  0  0  0  0  0  0  0  0  0  0
   -4.2178    0.3611    0.0000 H   0  0  0  0  0  0  0  0  0  0  0  0
  1  2  1  0  0  0  0
  2  3  4  0  0  0  0
  3  4  4  0  0  0  0
  4  5  1  0  0  0  0
  4  6  4  0  0  0  0
  6  7  1  0  0  0  0
  6  8  4  0  0  0  0
  8  2  4  0  0  0  0
  8  9  1  0  0  0  0
  1 10  2  0  0  0  0
  1 11  2  0  0  0  0
  1 12  1  0  0  0  0
 12 13  1  0  0  0  0
M  END
> <CAS>
53744-47-1

> <NAME>
1H-Imidazole-2-sulfonic acid

> <preferred_name>
PUBCHEM_19963669

> <iupac>
C3H4N2O3S

> <SMILES>
OS(=O)(=O)c1[nH]cc[n]1

> <Canonical_QSARr>
OS(=O)(=O)c1[nH]cc[n]1

> <InChI_Code_QSARr>
InChI=1S/C3H4N2O3S/c6-9(7,8)3-4-1-2-5-3/h1-2H,(H,4,5)(H,6,7,8)

> <InChI Key_QSARr>
LYLDIIUFTYRPPK-UHFFFAOYSA-N

> <Salt_Solvent>
?

> <WS Temperature>


> <WS Reference>
BEILSTEIN

> <dsstox_substance_id>
DTXSID40601515

> <LogMolar>
-0.0738

$$$$
53910-10-4
  -INDIGO-01081615412D

 16 17  0  0  0  0  0  0  0  0999 V2000
   -4.1569    2.4000    0.0000 I   0  0  0  0  0  0  0  0  0  0  0  0
   -2.7712    1.6000    0.0000 C   0  0  0  0  0  0  0  0  0  0  0  0
   -2.7712    0.0000    0.0000 C   0  0  0  0  0  0  0  0  0  0  0  0
   -4.1569   -0.8000    0.0000 H   0  0  0  0  0  0  0  0  0  0  0  0
   -1.3857   -0.8000    0.0000 C   0  0  0  0  0  0  0  0  0  0  0  0
   -1.3857   -2.4000    0.0000 H   0  0  0  0  0  0  0  0  0  0  0  0
    0.0000    0.0000    0.0000 C   0  0  0  0  0  0  0  0  0  0  0  0
    1.5216   -0.4944    0.0000 C   0  0  0  0  0  0  0  0  0  0  0  0
    2.4621    0.8000    0.0000 O   0  0  0  0  0  0  0  0  0  0  0  0
    1.5216    2.0944    0.0000 C   0  0  0  0  0  0  0  0  0  0  0  0
    2.0161    3.6161    0.0000 O   0  0  0  0  0  0  0  0  0  0  0  0
    0.0000    1.6000    0.0000 C   0  0  0  0  0  0  0  0  0  0  0  0
   -1.3857    2.4000    0.0000 C   0  0  0  0  0  0  0  0  0  0  0  0
   -1.3857    4.0000    0.0000 H   0  0  0  0  0  0  0  0  0  0  0  0
    0.8709   -1.9561    0.0000 H   0  0  0  0  0  0  0  0  0  0  0  0
    2.9073   -1.2944    0.0000 H   0  0  0  0  0  0  0  0  0  0  0  0
  1  2  1  0  0  0  0
  2  3  4  0  0  0  0
  3  4  1  0  0  0  0
  3  5  4  0  0  0  0
  5  6  1  0  0  0  0
  5  7  4  0  0  0  0
  7  8  1  0  0  0  0
  8  9  1  0  0  0  0
  9 10  1  0  0  0  0
 10 11  2  0  0  0  0
 10 12  1  0  0  0  0
 12  7  4  0  0  0  0
 12 13  4  0  0  0  0
 13  2  4  0  0  0  0
 13 14  1  0  0  0  0
  8 15  1  0  0  0  0
  8 16  1  0  0  0  0
M  END
> <CAS>
53910-10-4

> <NAME>
1(3H)-Isobenzofuranone, 6-iodo-

> <preferred_name>
6-Iodophthalide

> <iupac>
C8H5IO2

> <SMILES>
O=C1OCc2ccc(I)cc21

> <Canonical_QSARr>
O=C1OCc2ccc(I)cc21

> <InChI_Code_QSARr>
InChI=1S/C8H5IO2/c9-6-2-1-5-4-11-8(10)7(5)3-6/h1-3H,4H2

> <InChI Key_QSARr>
GDWUNKJJSAKJSC-UHFFFAOYSA-N

> <Salt_Solvent>
?

> <WS Temperature>
25

> <WS Reference>
BEILSTEIN

> <dsstox_substance_id>
DTXSID30428314

> <LogMolar>
-3.2109

$$$$
54016-23-8
  -INDIGO-01081615412D

 29 29  0  0  0  0  0  0  0  0999 V2000
   -2.3035    1.9329    0.0000 C   0  0  0  0  0  0  0  0  0  0  0  0
   -1.5035    0.5473    0.0000 N   0  0  0  0  0  0  0  0  0  0  0  0
    0.0000    0.0000    0.0000 C   0  0  0  0  0  0  0  0  0  0  0  0
    1.5035   -0.5472    0.0000 C   0  0  0  0  0  0  0  0  0  0  0  0
    3.0070   -1.0945    0.0000 H   0  0  0  0  0  0  0  0  0  0  0  0
    1.7814   -2.1229    0.0000 H   0  0  0  0  0  0  0  0  0  0  0  0
    2.7291    0.4813    0.0000 H   0  0  0  0  0  0  0  0  0  0  0  0
   -0.5472   -1.5035    0.0000 C   0  0  0  0  0  0  0  0  0  0  0  0
   -1.0944   -3.0070    0.0000 H   0  0  0  0  0  0  0  0  0  0  0  0
    0.4812   -2.7292    0.0000 H   0  0  0  0  0  0  0  0  0  0  0  0
   -2.1230   -1.7813    0.0000 H   0  0  0  0  0  0  0  0  0  0  0  0
    0.5472    1.5036    0.0000 C   0  0  0  0  0  0  0  0  0  0  0  0
   -0.8383    2.3036    0.0000 O   0  0  0  0  0  0  0  0  0  0  0  0
    1.9330    2.3036    0.0000 N   0  0  0  0  0  0  0  0  0  0  0  0
    1.9330    3.9036    0.0000 H   0  0  0  0  0  0  0  0  0  0  0  0
    3.3185    1.5036    0.0000 H   0  0  0  0  0  0  0  0  0  0  0  0
   -2.7291   -0.4812    0.0000 H   0  0  0  0  0  0  0  0  0  0  0  0
   -3.9035    1.9329    0.0000 C   0  0  0  0  0  0  0  0  0  0  0  0
   -4.7035    3.3185    0.0000 C   0  0  0  0  0  0  0  0  0  0  0  0
   -3.9035    4.7042    0.0000 H   0  0  0  0  0  0  0  0  0  0  0  0
   -6.3035    3.3185    0.0000 C   0  0  0  0  0  0  0  0  0  0  0  0
   -7.1035    4.7042    0.0000 H   0  0  0  0  0  0  0  0  0  0  0  0
   -7.1035    1.9329    0.0000 C   0  0  0  0  0  0  0  0  0  0  0  0
   -8.7035    1.9329    0.0000 H   0  0  0  0  0  0  0  0  0  0  0  0
   -6.3035    0.5473    0.0000 C   0  0  0  0  0  0  0  0  0  0  0  0
   -7.1035   -0.8385    0.0000 H   0  0  0  0  0  0  0  0  0  0  0  0
   -4.7035    0.5473    0.0000 C   0  0  0  0  0  0  0  0  0  0  0  0
   -3.9035   -0.8385    0.0000 H   0  0  0  0  0  0  0  0  0  0  0  0
   -1.5035    3.3185    0.0000 O   0  0  0  0  0  0  0  0  0  0  0  0
  1  2  1  0  0  0  0
  2  3  1  0  0  0  0
  3  4  1  0  0  0  0
  4  5  1  0  0  0  0
  4  6  1  0  0  0  0
  4  7  1  0  0  0  0
  3  8  1  0  0  0  0
  8  9  1  0  0  0  0
  8 10  1  0  0  0  0
  8 11  1  0  0  0  0
  3 12  1  0  0  0  0
 12 13  2  0  0  0  0
 12 14  1  0  0  0  0
 14 15  1  0  0  0  0
 14 16  1  0  0  0  0
  2 17  1  0  0  0  0
  1 18  1  0  0  0  0
 18 19  4  0  0  0  0
 19 20  1  0  0  0  0
 19 21  4  0  0  0  0
 21 22  1  0  0  0  0
 21 23  4  0  0  0  0
 23 24  1  0  0  0  0
 23 25  4  0  0  0  0
 25 26  1  0  0  0  0
 25 27  4  0  0  0  0
 27 18  4  0  0  0  0
 27 28  1  0  0  0  0
  1 29  2  0  0  0  0
M  END
> <CAS>
54016-23-8

> <NAME>
Benzamide, N-(2-amino-1,1-dimethyl-2-oxoethyl)-

> <preferred_name>


> <iupac>


> <SMILES>
CC(C)(NC(=O)c1ccccc1)C(N)=O

> <Canonical_QSARr>
CC(C)(NC(=O)c1ccccc1)C(N)=O

> <InChI_Code_QSARr>
InChI=1S/C11H14N2O2/c1-11(2,10(12)15)13-9(14)8-6-4-3-5-7-8/h3-7H,1-2H3,(H2,12,15)(H,13,14)

> <InChI Key_QSARr>
GNFOQSWHSQTXHR-UHFFFAOYSA-N

> <Salt_Solvent>
?

> <WS Temperature>


> <WS Reference>
BEILSTEIN

> <dsstox_substance_id>


> <LogMolar>
-1.6154

$$$$
54535-60-3
  -INDIGO-01081615412D

 40 39  0  0  0  0  0  0  0  0999 V2000
   -8.8000   -4.1569    0.0000 O   0  0  0  0  0  0  0  0  0  0  0  0
   -9.6001   -2.7713    0.0000 C   0  0  0  0  0  0  0  0  0  0  0  0
  -11.2001   -2.7713    0.0000 C   0  0  0  0  0  0  0  0  0  0  0  0
  -12.8001   -2.7713    0.0000 C   0  0  0  0  0  0  0  0  0  0  0  0
  -14.4000   -2.7713    0.0000 C   0  0  0  0  0  0  0  0  0  0  0  0
  -16.0000   -2.7713    0.0000 C   0  0  0  0  0  0  0  0  0  0  0  0
  -17.6000   -2.7713    0.0000 H   0  0  0  0  0  0  0  0  0  0  0  0
  -16.7998   -4.1569    0.0000 H   0  0  0  0  0  0  0  0  0  0  0  0
  -16.7998   -1.3857    0.0000 H   0  0  0  0  0  0  0  0  0  0  0  0
  -14.4000   -4.3713    0.0000 H   0  0  0  0  0  0  0  0  0  0  0  0
  -14.4000   -1.1713    0.0000 H   0  0  0  0  0  0  0  0  0  0  0  0
  -12.8001   -4.3713    0.0000 H   0  0  0  0  0  0  0  0  0  0  0  0
  -12.8001   -1.1713    0.0000 H   0  0  0  0  0  0  0  0  0  0  0  0
  -11.2001   -4.3713    0.0000 H   0  0  0  0  0  0  0  0  0  0  0  0
  -11.2001   -1.1713    0.0000 H   0  0  0  0  0  0  0  0  0  0  0  0
   -8.8000   -1.3856    0.0000 N   0  0  0  0  0  0  0  0  0  0  0  0
   -7.2000   -1.3856    0.0000 C   0  0  0  0  0  0  0  0  0  0  0  0
   -5.6000   -1.3856    0.0000 C   0  0  0  0  0  0  0  0  0  0  0  0
   -4.0000   -1.3856    0.0000 N   0  0  0  0  0  0  0  0  0  0  0  0
   -3.1999    0.0000    0.0000 C   0  0  0  0  0  0  0  0  0  0  0  0
   -1.5999    0.0000    0.0000 C   0  0  0  0  0  0  0  0  0  0  0  0
    0.0001    0.0000    0.0000 C   0  0  0  0  0  0  0  0  0  0  0  0
    1.6000    0.0000    0.0000 C   0  0  0  0  0  0  0  0  0  0  0  0
    3.2000    0.0000    0.0000 C   0  0  0  0  0  0  0  0  0  0  0  0
    4.8000    0.0000    0.0000 H   0  0  0  0  0  0  0  0  0  0  0  0
    3.9998   -1.3856    0.0000 H   0  0  0  0  0  0  0  0  0  0  0  0
    3.9998    1.3856    0.0000 H   0  0  0  0  0  0  0  0  0  0  0  0
    1.6000   -1.6000    0.0000 H   0  0  0  0  0  0  0  0  0  0  0  0
    1.6000    1.6000    0.0000 H   0  0  0  0  0  0  0  0  0  0  0  0
    0.0001    1.6000    0.0000 H   0  0  0  0  0  0  0  0  0  0  0  0
    0.0001   -1.6000    0.0000 H   0  0  0  0  0  0  0  0  0  0  0  0
   -1.5999   -1.6000    0.0000 H   0  0  0  0  0  0  0  0  0  0  0  0
   -1.5999    1.6000    0.0000 H   0  0  0  0  0  0  0  0  0  0  0  0
   -4.0000    1.3856    0.0000 O   0  0  0  0  0  0  0  0  0  0  0  0
   -3.1999   -2.7713    0.0000 H   0  0  0  0  0  0  0  0  0  0  0  0
   -5.6000   -2.9857    0.0000 H   0  0  0  0  0  0  0  0  0  0  0  0
   -5.6000    0.2144    0.0000 H   0  0  0  0  0  0  0  0  0  0  0  0
   -7.2000   -2.9857    0.0000 H   0  0  0  0  0  0  0  0  0  0  0  0
   -7.2000    0.2144    0.0000 H   0  0  0  0  0  0  0  0  0  0  0  0
   -9.6001    0.0000    0.0000 H   0  0  0  0  0  0  0  0  0  0  0  0
  1  2  2  0  0  0  0
  2  3  1  0  0  0  0
  3  4  1  0  0  0  0
  4  5  1  0  0  0  0
  5  6  1  0  0  0  0
  6  7  1  0  0  0  0
  6  8  1  0  0  0  0
  6  9  1  0  0  0  0
  5 10  1  0  0  0  0
  5 11  1  0  0  0  0
  4 12  1  0  0  0  0
  4 13  1  0  0  0  0
  3 14  1  0  0  0  0
  3 15  1  0  0  0  0
  2 16  1  0  0  0  0
 16 17  1  0  0  0  0
 17 18  1  0  0  0  0
 18 19  1  0  0  0  0
 19 20  1  0  0  0  0
 20 21  1  0  0  0  0
 21 22  1  0  0  0  0
 22 23  1  0  0  0  0
 23 24  1  0  0  0  0
 24 25  1  0  0  0  0
 24 26  1  0  0  0  0
 24 27  1  0  0  0  0
 23 28  1  0  0  0  0
 23 29  1  0  0  0  0
 22 30  1  0  0  0  0
 22 31  1  0  0  0  0
 21 32  1  0  0  0  0
 21 33  1  0  0  0  0
 20 34  2  0  0  0  0
 19 35  1  0  0  0  0
 18 36  1  0  0  0  0
 18 37  1  0  0  0  0
 17 38  1  0  0  0  0
 17 39  1  0  0  0  0
 16 40  1  0  0  0  0
M  END
> <CAS>
54535-60-3

> <NAME>
Pentanamide, N,N'-1,2-ethanediylbis-

> <preferred_name>
n,n'-ethane-1,2-diyldipentanamide

> <iupac>
C12H24N2O2

> <SMILES>
CCCCC(=O)NCCNC(=O)CCCC

> <Canonical_QSARr>
CCCCC(=O)NCCNC(=O)CCCC

> <InChI_Code_QSARr>
InChI=1S/C12H24N2O2/c1-3-5-7-11(15)13-9-10-14-12(16)8-6-4-2/h3-10H2,1-2H3,(H,13,15)(H,14,16)

> <InChI Key_QSARr>
RPTHWMGVZGXIPQ-UHFFFAOYSA-N

> <Salt_Solvent>
?

> <WS Temperature>
25

> <WS Reference>
BEILSTEIN

> <dsstox_substance_id>
DTXSID50300729

> <LogMolar>
-1.8145

$$$$
54839-92-8
  -INDIGO-01081615412D

 27 27  0  0  0  0  0  0  0  0999 V2000
   -2.7714    1.6000    0.0000 S   0  0  0  0  0  0  0  0  0  0  0  0
   -4.1569    0.8000    0.0000 C   0  0  0  0  0  0  0  0  0  0  0  0
   -5.5427    1.6000    0.0000 C   0  0  0  0  0  0  0  0  0  0  0  0
   -5.5427    3.2000    0.0000 H   0  0  0  0  0  0  0  0  0  0  0  0
   -6.9282    0.8000    0.0000 C   0  0  0  0  0  0  0  0  0  0  0  0
   -8.3139    1.6000    0.0000 O   0  0  0  0  0  0  0  0  0  0  0  0
   -9.6995    0.8000    0.0000 H   0  0  0  0  0  0  0  0  0  0  0  0
   -6.9282   -0.8000    0.0000 C   0  0  0  0  0  0  0  0  0  0  0  0
   -8.3139   -1.6000    0.0000 H   0  0  0  0  0  0  0  0  0  0  0  0
   -5.5427   -1.6000    0.0000 C   0  0  0  0  0  0  0  0  0  0  0  0
   -5.5427   -3.2000    0.0000 O   0  0  0  0  0  0  0  0  0  0  0  0
   -6.9282   -4.0000    0.0000 H   0  0  0  0  0  0  0  0  0  0  0  0
   -4.1569   -0.8000    0.0000 C   0  0  0  0  0  0  0  0  0  0  0  0
   -2.7714   -1.6000    0.0000 H   0  0  0  0  0  0  0  0  0  0  0  0
   -1.3856    0.8000    0.0000 C   0  0  0  0  0  0  0  0  0  0  0  0
   -0.0001   -0.0000    0.0000 C   0  0  0  0  0  0  0  0  0  0  0  0
    1.3856   -0.8000    0.0000 C   0  0  0  0  0  0  0  0  0  0  0  0
    2.7714   -1.6000    0.0000 C   0  0  0  0  0  0  0  0  0  0  0  0
    4.1569   -2.4000    0.0000 H   0  0  0  0  0  0  0  0  0  0  0  0
    4.1569   -0.8000    0.0000 H   0  0  0  0  0  0  0  0  0  0  0  0
    2.7714   -3.2000    0.0000 H   0  0  0  0  0  0  0  0  0  0  0  0
    2.1857    0.5857    0.0000 H   0  0  0  0  0  0  0  0  0  0  0  0
    0.5856   -2.1857    0.0000 H   0  0  0  0  0  0  0  0  0  0  0  0
    0.8000    1.3857    0.0000 H   0  0  0  0  0  0  0  0  0  0  0  0
   -0.8000   -1.3857    0.0000 H   0  0  0  0  0  0  0  0  0  0  0  0
   -0.5856    2.1856    0.0000 H   0  0  0  0  0  0  0  0  0  0  0  0
   -2.1857   -0.5856    0.0000 H   0  0  0  0  0  0  0  0  0  0  0  0
  1  2  1  0  0  0  0
  2  3  4  0  0  0  0
  3  4  1  0  0  0  0
  3  5  4  0  0  0  0
  5  6  1  0  0  0  0
  6  7  1  0  0  0  0
  5  8  4  0  0  0  0
  8  9  1  0  0  0  0
  8 10  4  0  0  0  0
 10 11  1  0  0  0  0
 11 12  1  0  0  0  0
 10 13  4  0  0  0  0
 13  2  4  0  0  0  0
 13 14  1  0  0  0  0
  1 15  1  0  0  0  0
 15 16  1  0  0  0  0
 16 17  1  0  0  0  0
 17 18  1  0  0  0  0
 18 19  1  0  0  0  0
 18 20  1  0  0  0  0
 18 21  1  0  0  0  0
 17 22  1  0  0  0  0
 17 23  1  0  0  0  0
 16 24  1  0  0  0  0
 16 25  1  0  0  0  0
 15 26  1  0  0  0  0
 15 27  1  0  0  0  0
M  END
> <CAS>
54839-92-8

> <NAME>
1,3-Benzenediol, 5-(butylthio)-

> <preferred_name>
PUBCHEM_23424298

> <iupac>
C10H14O2S

> <SMILES>
CCCCSc1cc(O)cc(O)c1

> <Canonical_QSARr>
CCCCSc1cc(O)cc(O)c1

> <InChI_Code_QSARr>
InChI=1S/C10H14O2S/c1-2-3-4-13-10-6-8(11)5-9(12)7-10/h5-7,11-12H,2-4H2,1H3

> <InChI Key_QSARr>
OBUQICZSPJTRQI-UHFFFAOYSA-N

> <Salt_Solvent>
?

> <WS Temperature>
20

> <WS Reference>
BEILSTEIN

> <dsstox_substance_id>
DTXSID50633968

> <LogMolar>
-2.5191

$$$$
55219-65-3
  -INDIGO-01081615412D

 38 39  0  0  0  0  0  0  0  0999 V2000
   -2.7714    1.6000    0.0000 C   0  0  0  0  0  0  0  0  0  0  0  0
   -2.2240    3.1035    0.0000 N   0  0  0  1  0  0  0  0  0  0  0  0
   -3.1188    4.4300    0.0000 C   0  0  0  0  0  0  0  0  0  0  0  0
   -4.7178    4.4858    0.0000 H   0  0  0  0  0  0  0  0  0  0  0  0
   -2.1338    5.6908    0.0000 N   0  0  0  1  0  0  0  0  0  0  0  0
   -0.6301    5.1435    0.0000 C   0  0  0  0  0  0  0  0  0  0  0  0
    0.6962    6.0383    0.0000 H   0  0  0  0  0  0  0  0  0  0  0  0
   -0.6860    3.5445    0.0000 N   0  0  0  1  0  0  0  0  0  0  0  0
   -3.9969    0.5716    0.0000 O   0  0  0  0  0  0  0  0  0  0  0  0
   -5.5970    0.5716    0.0000 C   0  0  0  0  0  0  0  0  0  0  0  0
   -6.3970    1.9571    0.0000 C   0  0  0  0  0  0  0  0  0  0  0  0
   -5.5970    3.3428    0.0000 H   0  0  0  0  0  0  0  0  0  0  0  0
   -7.9970    1.9571    0.0000 C   0  0  0  0  0  0  0  0  0  0  0  0
   -8.7970    3.3428    0.0000 H   0  0  0  0  0  0  0  0  0  0  0  0
   -8.7970    0.5716    0.0000 C   0  0  0  0  0  0  0  0  0  0  0  0
  -10.3970    0.5716    0.0000 Cl  0  0  0  0  0  0  0  0  0  0  0  0
   -7.9970   -0.8141    0.0000 C   0  0  0  0  0  0  0  0  0  0  0  0
   -8.7970   -2.1997    0.0000 H   0  0  0  0  0  0  0  0  0  0  0  0
   -6.3970   -0.8141    0.0000 C   0  0  0  0  0  0  0  0  0  0  0  0
   -5.5970   -2.1997    0.0000 H   0  0  0  0  0  0  0  0  0  0  0  0
   -1.3857    0.8000    0.0000 C   0  0  0  0  0  0  0  0  0  0  0  0
   -2.1857   -0.5857    0.0000 O   0  0  0  0  0  0  0  0  0  0  0  0
   -3.7856   -0.5857    0.0000 H   0  0  0  0  0  0  0  0  0  0  0  0
    0.0000    0.0000    0.0000 C   0  0  0  0  0  0  0  0  0  0  0  0
    1.3857   -0.7999    0.0000 C   0  0  0  0  0  0  0  0  0  0  0  0
    2.7714   -1.6000    0.0000 H   0  0  0  0  0  0  0  0  0  0  0  0
    2.8891   -0.2528    0.0000 H   0  0  0  0  0  0  0  0  0  0  0  0
    1.3857   -2.4000    0.0000 H   0  0  0  0  0  0  0  0  0  0  0  0
   -0.8000   -1.3856    0.0000 C   0  0  0  0  0  0  0  0  0  0  0  0
    0.0000   -2.7713    0.0000 H   0  0  0  0  0  0  0  0  0  0  0  0
   -1.6000   -2.7713    0.0000 H   0  0  0  0  0  0  0  0  0  0  0  0
   -2.3756   -1.6635    0.0000 H   0  0  0  0  0  0  0  0  0  0  0  0
    0.8000    1.3857    0.0000 C   0  0  0  0  0  0  0  0  0  0  0  0
    1.0779    2.9613    0.0000 H   0  0  0  0  0  0  0  0  0  0  0  0
    2.3035    1.9329    0.0000 H   0  0  0  0  0  0  0  0  0  0  0  0
    2.0257    0.3572    0.0000 H   0  0  0  0  0  0  0  0  0  0  0  0
   -0.5857    2.1856    0.0000 H   0  0  0  0  0  0  0  0  0  0  0  0
   -4.1568    2.4000    0.0000 H   0  0  0  0  0  0  0  0  0  0  0  0
  1  2  1  0  0  0  0
  2  3  4  0  0  0  0
  3  4  1  0  0  0  0
  3  5  4  0  0  0  0
  5  6  4  0  0  0  0
  6  7  1  0  0  0  0
  6  8  4  0  0  0  0
  8  2  4  0  0  0  0
  1  9  1  0  0  0  0
  9 10  1  0  0  0  0
 10 11  4  0  0  0  0
 11 12  1  0  0  0  0
 11 13  4  0  0  0  0
 13 14  1  0  0  0  0
 13 15  4  0  0  0  0
 15 16  1  0  0  0  0
 15 17  4  0  0  0  0
 17 18  1  0  0  0  0
 17 19  4  0  0  0  0
 19 10  4  0  0  0  0
 19 20  1  0  0  0  0
  1 21  1  0  0  0  0
 21 22  1  0  0  0  0
 22 23  1  0  0  0  0
 21 24  1  0  0  0  0
 24 25  1  0  0  0  0
 25 26  1  0  0  0  0
 25 27  1  0  0  0  0
 25 28  1  0  0  0  0
 24 29  1  0  0  0  0
 29 30  1  0  0  0  0
 29 31  1  0  0  0  0
 29 32  1  0  0  0  0
 24 33  1  0  0  0  0
 33 34  1  0  0  0  0
 33 35  1  0  0  0  0
 33 36  1  0  0  0  0
 21 37  1  0  0  0  0
  1 38  1  0  0  0  0
M  END
> <CAS>
55219-65-3

> <NAME>
TRIADIMENOL

> <preferred_name>
Triadimenol

> <iupac>
1-(4-chlorophenoxy)-3,3-dimethyl-1-(1H-1,2,4-triazol-1-yl)butan-2-ol

> <SMILES>
CC(C)(C)C(O)C(Oc1ccc(Cl)cc1)[n]1c[n]c[n]1

> <Canonical_QSARr>
CC(C)(C)C(O)C(Oc1ccc(Cl)cc1)[n]1c[n]c[n]1

> <InChI_Code_QSARr>
InChI=1S/C14H18ClN3O2/c1-14(2,3)12(19)13(18-9-16-8-17-18)20-11-6-4-10(15)5-7-11/h4-9,12-13,19H,1-3H3

> <InChI Key_QSARr>
BAZVSMNPJJMILC-UHFFFAOYSA-N

> <Salt_Solvent>
?

> <WS Temperature>
20

> <WS Reference>
MERCK INDEX (1996)

> <dsstox_substance_id>
DTXSID0032493

> <LogMolar>
-3.3918

$$$$
55285-14-8
  -INDIGO-01081615412D

 58 59  0  0  0  0  0  0  0  0999 V2000
   -6.0808   -2.5322    0.0000 C   0  0  0  0  0  0  0  0  0  0  0  0
   -7.4666   -1.7323    0.0000 N   0  0  0  0  0  0  0  0  0  0  0  0
   -7.4666   -0.1324    0.0000 C   0  0  0  0  0  0  0  0  0  0  0  0
   -7.4666    1.4678    0.0000 H   0  0  0  0  0  0  0  0  0  0  0  0
   -8.8521    0.6677    0.0000 H   0  0  0  0  0  0  0  0  0  0  0  0
   -6.0808    0.6677    0.0000 H   0  0  0  0  0  0  0  0  0  0  0  0
   -8.8521   -2.5322    0.0000 S   0  0  0  0  0  0  0  0  0  0  0  0
  -10.4520   -2.5324    0.0000 N   0  0  0  0  0  0  0  0  0  0  0  0
  -11.2521   -3.9179    0.0000 C   0  0  0  0  0  0  0  0  0  0  0  0
  -12.0520   -5.3035    0.0000 C   0  0  0  0  0  0  0  0  0  0  0  0
  -12.8521   -6.6892    0.0000 C   0  0  0  0  0  0  0  0  0  0  0  0
  -13.6522   -8.0750    0.0000 C   0  0  0  0  0  0  0  0  0  0  0  0
  -14.4520   -9.4605    0.0000 H   0  0  0  0  0  0  0  0  0  0  0  0
  -12.8521   -9.4605    0.0000 H   0  0  0  0  0  0  0  0  0  0  0  0
  -15.2521   -8.0750    0.0000 H   0  0  0  0  0  0  0  0  0  0  0  0
  -11.4665   -7.4893    0.0000 H   0  0  0  0  0  0  0  0  0  0  0  0
  -14.2379   -5.8891    0.0000 H   0  0  0  0  0  0  0  0  0  0  0  0
  -10.6664   -6.1035    0.0000 H   0  0  0  0  0  0  0  0  0  0  0  0
  -13.4378   -4.5036    0.0000 H   0  0  0  0  0  0  0  0  0  0  0  0
  -12.6377   -3.1179    0.0000 H   0  0  0  0  0  0  0  0  0  0  0  0
   -9.8663   -4.7180    0.0000 H   0  0  0  0  0  0  0  0  0  0  0  0
  -11.2521   -1.1466    0.0000 C   0  0  0  0  0  0  0  0  0  0  0  0
  -12.0520    0.2389    0.0000 C   0  0  0  0  0  0  0  0  0  0  0  0
  -12.8521    1.6246    0.0000 C   0  0  0  0  0  0  0  0  0  0  0  0
  -13.6522    3.0102    0.0000 C   0  0  0  0  0  0  0  0  0  0  0  0
  -14.4520    4.3959    0.0000 H   0  0  0  0  0  0  0  0  0  0  0  0
  -15.2521    3.0102    0.0000 H   0  0  0  0  0  0  0  0  0  0  0  0
  -12.8521    4.3959    0.0000 H   0  0  0  0  0  0  0  0  0  0  0  0
  -14.2379    0.8246    0.0000 H   0  0  0  0  0  0  0  0  0  0  0  0
  -11.4665    2.4247    0.0000 H   0  0  0  0  0  0  0  0  0  0  0  0
  -13.4378   -0.5610    0.0000 H   0  0  0  0  0  0  0  0  0  0  0  0
  -10.6664    1.0390    0.0000 H   0  0  0  0  0  0  0  0  0  0  0  0
  -12.6377   -1.9467    0.0000 H   0  0  0  0  0  0  0  0  0  0  0  0
   -9.8663   -0.3466    0.0000 H   0  0  0  0  0  0  0  0  0  0  0  0
   -4.6952   -1.7323    0.0000 O   0  0  0  0  0  0  0  0  0  0  0  0
   -3.3094   -2.5322    0.0000 C   0  0  0  0  0  0  0  0  0  0  0  0
   -3.3094   -4.1323    0.0000 C   0  0  0  0  0  0  0  0  0  0  0  0
   -4.6952   -4.9322    0.0000 H   0  0  0  0  0  0  0  0  0  0  0  0
   -1.9239   -4.9322    0.0000 C   0  0  0  0  0  0  0  0  0  0  0  0
   -1.9239   -6.5323    0.0000 H   0  0  0  0  0  0  0  0  0  0  0  0
   -0.5384   -4.1323    0.0000 C   0  0  0  0  0  0  0  0  0  0  0  0
    0.8474   -4.9322    0.0000 H   0  0  0  0  0  0  0  0  0  0  0  0
   -0.5384   -2.5322    0.0000 C   0  0  0  0  0  0  0  0  0  0  0  0
    0.6509   -1.4617    0.0000 C   0  0  0  0  0  0  0  0  0  0  0  0
    0.0001   -0.0000    0.0000 C   0  0  0  0  0  0  0  0  0  0  0  0
    1.5216    0.4945    0.0000 C   0  0  0  0  0  0  0  0  0  0  0  0
    3.0434    0.9889    0.0000 H   0  0  0  0  0  0  0  0  0  0  0  0
    1.8544    2.0596    0.0000 H   0  0  0  0  0  0  0  0  0  0  0  0
    2.8787   -0.3535    0.0000 H   0  0  0  0  0  0  0  0  0  0  0  0
   -0.3326    1.5650    0.0000 C   0  0  0  0  0  0  0  0  0  0  0  0
   -0.6654    3.1301    0.0000 H   0  0  0  0  0  0  0  0  0  0  0  0
   -1.8544    2.0596    0.0000 H   0  0  0  0  0  0  0  0  0  0  0  0
    0.8564    2.6357    0.0000 H   0  0  0  0  0  0  0  0  0  0  0  0
   -1.5911   -0.1673    0.0000 O   0  0  0  0  0  0  0  0  0  0  0  0
   -1.9239   -1.7323    0.0000 C   0  0  0  0  0  0  0  0  0  0  0  0
    1.5911   -2.7561    0.0000 H   0  0  0  0  0  0  0  0  0  0  0  0
    2.2508   -1.4617    0.0000 H   0  0  0  0  0  0  0  0  0  0  0  0
   -6.0808   -4.1323    0.0000 O   0  0  0  0  0  0  0  0  0  0  0  0
  1  2  1  0  0  0  0
  2  3  1  0  0  0  0
  3  4  1  0  0  0  0
  3  5  1  0  0  0  0
  3  6  1  0  0  0  0
  2  7  1  0  0  0  0
  7  8  1  0  0  0  0
  8  9  1  0  0  0  0
  9 10  1  0  0  0  0
 10 11  1  0  0  0  0
 11 12  1  0  0  0  0
 12 13  1  0  0  0  0
 12 14  1  0  0  0  0
 12 15  1  0  0  0  0
 11 16  1  0  0  0  0
 11 17  1  0  0  0  0
 10 18  1  0  0  0  0
 10 19  1  0  0  0  0
  9 20  1  0  0  0  0
  9 21  1  0  0  0  0
  8 22  1  0  0  0  0
 22 23  1  0  0  0  0
 23 24  1  0  0  0  0
 24 25  1  0  0  0  0
 25 26  1  0  0  0  0
 25 27  1  0  0  0  0
 25 28  1  0  0  0  0
 24 29  1  0  0  0  0
 24 30  1  0  0  0  0
 23 31  1  0  0  0  0
 23 32  1  0  0  0  0
 22 33  1  0  0  0  0
 22 34  1  0  0  0  0
  1 35  1  0  0  0  0
 35 36  1  0  0  0  0
 36 37  4  0  0  0  0
 37 38  1  0  0  0  0
 37 39  4  0  0  0  0
 39 40  1  0  0  0  0
 39 41  4  0  0  0  0
 41 42  1  0  0  0  0
 41 43  4  0  0  0  0
 43 44  1  0  0  0  0
 44 45  1  0  0  0  0
 45 46  1  0  0  0  0
 46 47  1  0  0  0  0
 46 48  1  0  0  0  0
 46 49  1  0  0  0  0
 45 50  1  0  0  0  0
 50 51  1  0  0  0  0
 50 52  1  0  0  0  0
 50 53  1  0  0  0  0
 45 54  1  0  0  0  0
 54 55  1  0  0  0  0
 55 36  4  0  0  0  0
 55 43  4  0  0  0  0
 44 56  1  0  0  0  0
 44 57  1  0  0  0  0
  1 58  2  0  0  0  0
M  END
> <CAS>
55285-14-8

> <NAME>
Carbamic acid, [(dibutylamino)thio]methyl-, 2,3-

> <preferred_name>
Carbosulfan

> <iupac>
2,2-dimethyl-2,3-dihydro-1-benzofuran-7-yl [(dibutylamino)sulfanyl]methylcarbamate

> <SMILES>
CN(SN(CCCC)CCCC)C(=O)Oc1cccc2CC(C)(C)Oc21

> <Canonical_QSARr>
CN(SN(CCCC)CCCC)C(=O)Oc1cccc2CC(C)(C)Oc21

> <InChI_Code_QSARr>
InChI=1S/C20H32N2O3S/c1-6-8-13-22(14-9-7-2)26-21(5)19(23)24-17-12-10-11-16-15-20(3,4)25-18(16)17/h10-12H,6-9,13-15H2,1-5H3

> <InChI Key_QSARr>
JLQUFIHWVLZVTJ-UHFFFAOYSA-N

> <Salt_Solvent>
?

> <WS Temperature>
25

> <WS Reference>
TOMLIN,C (1994)

> <dsstox_substance_id>
DTXSID5023950

> <LogMolar>
-6.1033

$$$$
55335-06-3
  -INDIGO-01081615412D

 18 18  0  0  0  0  0  0  0  0999 V2000
   -2.7712    1.6000    0.0000 N   0  0  0  1  0  0  0  0  0  0  0  0
   -4.1569    2.4000    0.0000 C   0  0  0  0  0  0  0  0  0  0  0  0
   -4.1569    4.0000    0.0000 Cl  0  0  0  0  0  0  0  0  0  0  0  0
   -5.5425    1.6000    0.0000 C   0  0  0  0  0  0  0  0  0  0  0  0
   -6.9282    2.4000    0.0000 Cl  0  0  0  0  0  0  0  0  0  0  0  0
   -5.5425    0.0000    0.0000 C   0  0  0  0  0  0  0  0  0  0  0  0
   -6.9282   -0.8000    0.0000 H   0  0  0  0  0  0  0  0  0  0  0  0
   -4.1569   -0.8000    0.0000 C   0  0  0  0  0  0  0  0  0  0  0  0
   -4.1569   -2.4000    0.0000 Cl  0  0  0  0  0  0  0  0  0  0  0  0
   -2.7712    0.0000    0.0000 C   0  0  0  0  0  0  0  0  0  0  0  0
   -1.3856   -0.8000    0.0000 O   0  0  0  0  0  0  0  0  0  0  0  0
   -0.0001    0.0000    0.0000 C   0  0  0  0  0  0  0  0  0  0  0  0
    1.3856    0.8000    0.0000 C   0  0  0  0  0  0  0  0  0  0  0  0
    2.7713    0.0000    0.0000 O   0  0  0  0  0  0  0  0  0  0  0  0
    4.1569    0.8000    0.0000 H   0  0  0  0  0  0  0  0  0  0  0  0
    1.3856    2.4000    0.0000 O   0  0  0  0  0  0  0  0  0  0  0  0
    0.8000   -1.3856    0.0000 H   0  0  0  0  0  0  0  0  0  0  0  0
   -0.8000    1.3856    0.0000 H   0  0  0  0  0  0  0  0  0  0  0  0
  1  2  4  0  0  0  0
  2  3  1  0  0  0  0
  2  4  4  0  0  0  0
  4  5  1  0  0  0  0
  4  6  4  0  0  0  0
  6  7  1  0  0  0  0
  6  8  4  0  0  0  0
  8  9  1  0  0  0  0
  8 10  4  0  0  0  0
 10  1  4  0  0  0  0
 10 11  1  0  0  0  0
 11 12  1  0  0  0  0
 12 13  1  0  0  0  0
 13 14  1  0  0  0  0
 14 15  1  0  0  0  0
 13 16  2  0  0  0  0
 12 17  1  0  0  0  0
 12 18  1  0  0  0  0
M  END
> <CAS>
55335-06-3

> <NAME>
TRICLOPYR

> <preferred_name>
Triclopyr

> <iupac>
C7H4Cl3NO3

> <SMILES>
OC(=O)COc1[n]c(Cl)c(Cl)cc1Cl

> <Canonical_QSARr>
OC(=O)COc1[n]c(Cl)c(Cl)cc1Cl

> <InChI_Code_QSARr>
InChI=1S/C7H4Cl3NO3/c8-3-1-4(9)7(11-6(3)10)14-2-5(12)13/h1H,2H2,(H,12,13)

> <InChI Key_QSARr>
REEQLXCGVXDJSQ-UHFFFAOYSA-N

> <Salt_Solvent>
?

> <WS Temperature>
25

> <WS Reference>
SHIU,WY ET AL. (1990)

> <dsstox_substance_id>
DTXSID0032497

> <LogMolar>
-2.7656

$$$$
55702-45-9
  -INDIGO-01081615412D

 22 23  0  0  0  0  0  0  0  0999 V2000
    0.0001    0.0000    0.0000 C   0  0  0  0  0  0  0  0  0  0  0  0
    0.8001   -1.3856    0.0000 C   0  0  0  0  0  0  0  0  0  0  0  0
    0.0001   -2.7713    0.0000 Cl  0  0  0  0  0  0  0  0  0  0  0  0
    2.4000   -1.3856    0.0000 C   0  0  0  0  0  0  0  0  0  0  0  0
    3.2000   -2.7713    0.0000 H   0  0  0  0  0  0  0  0  0  0  0  0
    3.2000    0.0000    0.0000 C   0  0  0  0  0  0  0  0  0  0  0  0
    4.8000    0.0000    0.0000 H   0  0  0  0  0  0  0  0  0  0  0  0
    2.4000    1.3856    0.0000 C   0  0  0  0  0  0  0  0  0  0  0  0
    3.2000    2.7713    0.0000 Cl  0  0  0  0  0  0  0  0  0  0  0  0
    0.8001    1.3856    0.0000 C   0  0  0  0  0  0  0  0  0  0  0  0
    0.0001    2.7713    0.0000 Cl  0  0  0  0  0  0  0  0  0  0  0  0
   -1.6001   -0.0000    0.0000 C   0  0  0  0  0  0  0  0  0  0  0  0
   -2.4001    1.3856    0.0000 C   0  0  0  0  0  0  0  0  0  0  0  0
   -1.6001    2.7713    0.0000 H   0  0  0  0  0  0  0  0  0  0  0  0
   -4.0000    1.3856    0.0000 C   0  0  0  0  0  0  0  0  0  0  0  0
   -4.8000    2.7713    0.0000 H   0  0  0  0  0  0  0  0  0  0  0  0
   -4.8000   -0.0000    0.0000 C   0  0  0  0  0  0  0  0  0  0  0  0
   -6.4000   -0.0000    0.0000 H   0  0  0  0  0  0  0  0  0  0  0  0
   -4.0000   -1.3856    0.0000 C   0  0  0  0  0  0  0  0  0  0  0  0
   -4.8000   -2.7713    0.0000 H   0  0  0  0  0  0  0  0  0  0  0  0
   -2.4001   -1.3856    0.0000 C   0  0  0  0  0  0  0  0  0  0  0  0
   -1.6001   -2.7713    0.0000 H   0  0  0  0  0  0  0  0  0  0  0  0
  1  2  4  0  0  0  0
  2  3  1  0  0  0  0
  2  4  4  0  0  0  0
  4  5  1  0  0  0  0
  4  6  4  0  0  0  0
  6  7  1  0  0  0  0
  6  8  4  0  0  0  0
  8  9  1  0  0  0  0
  8 10  4  0  0  0  0
 10  1  4  0  0  0  0
 10 11  1  0  0  0  0
  1 12  1  0  0  0  0
 12 13  4  0  0  0  0
 13 14  1  0  0  0  0
 13 15  4  0  0  0  0
 15 16  1  0  0  0  0
 15 17  4  0  0  0  0
 17 18  1  0  0  0  0
 17 19  4  0  0  0  0
 19 20  1  0  0  0  0
 19 21  4  0  0  0  0
 21 12  4  0  0  0  0
 21 22  1  0  0  0  0
M  END
> <CAS>
55702-45-9

> <NAME>
2,3,6-TRICHLOROBIPHENYL

> <preferred_name>
2,3,6-Trichlorobiphenyl

> <iupac>
1,2,4-trichloro-3-phenylbenzene

> <SMILES>
Clc1c(-c2ccccc2)c(Cl)ccc1Cl

> <Canonical_QSARr>
Clc1c(-c2ccccc2)c(Cl)ccc1Cl

> <InChI_Code_QSARr>
InChI=1S/C12H7Cl3/c13-9-6-7-10(14)12(15)11(9)8-4-2-1-3-5-8/h1-7H

> <InChI Key_QSARr>
LVROLHVSYNLFBE-UHFFFAOYSA-N

> <Salt_Solvent>
?

> <WS Temperature>
25

> <WS Reference>
EPA

> <dsstox_substance_id>
DTXSID3073557

> <LogMolar>
-6.4902

$$$$
55720-40-6
  -INDIGO-01081615412D

 18 19  0  0  0  0  0  0  0  0999 V2000
   -4.1569    0.8000    0.0000 Cl  0  0  0  0  0  0  0  0  0  0  0  0
   -2.7712   -0.0000    0.0000 C   0  0  0  0  0  0  0  0  0  0  0  0
   -2.7712   -1.6000    0.0000 C   0  0  0  0  0  0  0  0  0  0  0  0
   -4.1569   -2.4000    0.0000 Cl  0  0  0  0  0  0  0  0  0  0  0  0
   -1.3856   -2.4000    0.0000 C   0  0  0  0  0  0  0  0  0  0  0  0
   -1.3856   -4.0000    0.0000 H   0  0  0  0  0  0  0  0  0  0  0  0
    0.0001   -1.6000    0.0000 C   0  0  0  0  0  0  0  0  0  0  0  0
    1.3856   -2.4000    0.0000 C   0  0  0  0  0  0  0  0  0  0  0  0
    2.7713   -1.6000    0.0000 C   0  0  0  0  0  0  0  0  0  0  0  0
    2.7713   -0.0000    0.0000 C   0  0  0  0  0  0  0  0  0  0  0  0
    1.3856    0.8000    0.0000 C   0  0  0  0  0  0  0  0  0  0  0  0
    1.3856    2.4000    0.0000 H   0  0  0  0  0  0  0  0  0  0  0  0
    0.0001   -0.0000    0.0000 C   0  0  0  0  0  0  0  0  0  0  0  0
   -1.3856    0.8000    0.0000 C   0  0  0  0  0  0  0  0  0  0  0  0
   -1.3856    2.4000    0.0000 H   0  0  0  0  0  0  0  0  0  0  0  0
    4.1569    0.8000    0.0000 Cl  0  0  0  0  0  0  0  0  0  0  0  0
    4.1569   -2.4000    0.0000 H   0  0  0  0  0  0  0  0  0  0  0  0
    1.3856   -4.0000    0.0000 H   0  0  0  0  0  0  0  0  0  0  0  0
  1  2  1  0  0  0  0
  2  3  4  0  0  0  0
  3  4  1  0  0  0  0
  3  5  4  0  0  0  0
  5  6  1  0  0  0  0
  5  7  4  0  0  0  0
  7  8  4  0  0  0  0
  8  9  4  0  0  0  0
  9 10  4  0  0  0  0
 10 11  4  0  0  0  0
 11 12  1  0  0  0  0
 11 13  4  0  0  0  0
 13  7  4  0  0  0  0
 13 14  4  0  0  0  0
 14  2  4  0  0  0  0
 14 15  1  0  0  0  0
 10 16  1  0  0  0  0
  9 17  1  0  0  0  0
  8 18  1  0  0  0  0
M  END
> <CAS>
55720-40-6

> <NAME>
2,3,6-TRICHLORONAPHTHALENE

> <preferred_name>
Naphthalene, 2,3,6-trichloro-

> <iupac>
2,3,6-Trichloronaphthalene

> <SMILES>
Clc1cc2cc(Cl)c(Cl)cc2cc1

> <Canonical_QSARr>
Clc1cc2cc(Cl)c(Cl)cc2cc1

> <InChI_Code_QSARr>
InChI=1S/C10H5Cl3/c11-8-2-1-6-4-9(12)10(13)5-7(6)3-8/h1-5H

> <InChI Key_QSARr>
ZYTLBFKRYKUCMJ-UHFFFAOYSA-N

> <Salt_Solvent>
?

> <WS Temperature>
25

> <WS Reference>
OPPERHUIZEN,A (1987)

> <dsstox_substance_id>
DTXSID80204266

> <LogMolar>
-7.1419

$$$$
56030-54-7
  -INDIGO-01081615412D

 57 59  0  0  0  0  0  0  0  0999 V2000
    1.8957   -5.2083    0.0000 C   0  0  0  0  0  0  0  0  0  0  0  0
    2.1734   -3.6326    0.0000 C   0  0  0  0  0  0  0  0  0  0  0  0
    3.7492   -3.3548    0.0000 H   0  0  0  0  0  0  0  0  0  0  0  0
    0.9477   -2.6042    0.0000 C   0  0  0  0  0  0  0  0  0  0  0  0
    1.2257   -1.0285    0.0000 N   0  0  0  0  0  0  0  0  0  0  0  0
   -0.0000    0.0001    0.0000 C   0  0  0  0  0  0  0  0  0  0  0  0
   -0.8000    1.3856    0.0000 C   0  0  0  0  0  0  0  0  0  0  0  0
   -0.3329    2.0081    0.0000 H   0  0  0  0  0  0  0  0  0  0  0  0
   -1.0777    2.9614    0.0000 H   0  0  0  0  0  0  0  0  0  0  0  0
   -2.3999    1.3856    0.0000 C   0  0  0  0  0  0  0  0  0  0  0  0
   -2.1222    2.9614    0.0000 H   0  0  0  0  0  0  0  0  0  0  0  0
   -3.9034    1.9329    0.0000 H   0  0  0  0  0  0  0  0  0  0  0  0
   -3.1999    0.0001    0.0000 N   0  0  0  0  0  0  0  0  0  0  0  0
   -4.7999    0.0001    0.0000 C   0  0  0  0  0  0  0  0  0  0  0  0
   -6.4001    0.0001    0.0000 C   0  0  0  0  0  0  0  0  0  0  0  0
   -8.0001    0.0001    0.0000 C   0  0  0  0  0  0  0  0  0  0  0  0
   -8.9405    1.2944    0.0000 C   0  0  0  0  0  0  0  0  0  0  0  0
   -8.4461    2.8162    0.0000 H   0  0  0  0  0  0  0  0  0  0  0  0
  -10.4622    0.8000    0.0000 C   0  0  0  0  0  0  0  0  0  0  0  0
  -11.7566    1.7405    0.0000 H   0  0  0  0  0  0  0  0  0  0  0  0
  -10.4622   -0.8001    0.0000 C   0  0  0  0  0  0  0  0  0  0  0  0
  -11.7566   -1.7406    0.0000 H   0  0  0  0  0  0  0  0  0  0  0  0
   -8.9405   -1.2945    0.0000 S   0  0  0  1  0  0  0  0  0  0  0  0
   -6.4001   -1.6000    0.0000 H   0  0  0  0  0  0  0  0  0  0  0  0
   -6.4001    1.5999    0.0000 H   0  0  0  0  0  0  0  0  0  0  0  0
   -4.7999   -1.6000    0.0000 H   0  0  0  0  0  0  0  0  0  0  0  0
   -4.7999    1.5999    0.0000 H   0  0  0  0  0  0  0  0  0  0  0  0
   -2.3999   -1.3857    0.0000 C   0  0  0  0  0  0  0  0  0  0  0  0
   -3.9034   -1.9330    0.0000 H   0  0  0  0  0  0  0  0  0  0  0  0
   -2.3999   -2.9856    0.0000 H   0  0  0  0  0  0  0  0  0  0  0  0
   -0.8000   -1.3857    0.0000 C   0  0  0  0  0  0  0  0  0  0  0  0
   -1.4666   -1.8865    0.0000 H   0  0  0  0  0  0  0  0  0  0  0  0
    0.7758   -1.6634    0.0000 H   0  0  0  0  0  0  0  0  0  0  0  0
    1.0285    1.2256    0.0000 C   0  0  0  0  0  0  0  0  0  0  0  0
    2.2542    2.2541    0.0000 O   0  0  0  0  0  0  0  0  0  0  0  0
    1.9762    3.8299    0.0000 C   0  0  0  0  0  0  0  0  0  0  0  0
    1.6984    5.4055    0.0000 H   0  0  0  0  0  0  0  0  0  0  0  0
    3.2019    4.8582    0.0000 H   0  0  0  0  0  0  0  0  0  0  0  0
    0.4727    4.3770    0.0000 H   0  0  0  0  0  0  0  0  0  0  0  0
    0.7035    1.9329    0.0000 H   0  0  0  0  0  0  0  0  0  0  0  0
    2.0569    0.0001    0.0000 H   0  0  0  0  0  0  0  0  0  0  0  0
    2.7292   -0.4812    0.0000 C   0  0  0  0  0  0  0  0  0  0  0  0
    3.9549   -1.5097    0.0000 C   0  0  0  0  0  0  0  0  0  0  0  0
    5.1806   -2.5382    0.0000 C   0  0  0  0  0  0  0  0  0  0  0  0
    6.4063   -3.5667    0.0000 H   0  0  0  0  0  0  0  0  0  0  0  0
    6.6840   -1.9909    0.0000 H   0  0  0  0  0  0  0  0  0  0  0  0
    4.9026   -4.1138    0.0000 H   0  0  0  0  0  0  0  0  0  0  0  0
    4.9833   -0.2841    0.0000 H   0  0  0  0  0  0  0  0  0  0  0  0
    2.9264   -2.7354    0.0000 H   0  0  0  0  0  0  0  0  0  0  0  0
    3.0069    1.0944    0.0000 O   0  0  0  0  0  0  0  0  0  0  0  0
   -0.5557   -3.1513    0.0000 C   0  0  0  0  0  0  0  0  0  0  0  0
   -1.3473   -2.8892    0.0000 H   0  0  0  0  0  0  0  0  0  0  0  0
   -0.8335   -4.7271    0.0000 C   0  0  0  0  0  0  0  0  0  0  0  0
   -2.3369   -5.2742    0.0000 H   0  0  0  0  0  0  0  0  0  0  0  0
    0.3922   -5.7556    0.0000 C   0  0  0  0  0  0  0  0  0  0  0  0
    0.1142   -7.3312    0.0000 H   0  0  0  0  0  0  0  0  0  0  0  0
    3.1214   -6.2368    0.0000 H   0  0  0  0  0  0  0  0  0  0  0  0
  1  2  4  0  0  0  0
  2  3  1  0  0  0  0
  2  4  4  0  0  0  0
  4  5  1  0  0  0  0
  5  6  1  0  0  0  0
  6  7  1  0  0  0  0
  7  8  1  0  0  0  0
  7  9  1  0  0  0  0
  7 10  1  0  0  0  0
 10 11  1  0  0  0  0
 10 12  1  0  0  0  0
 10 13  1  0  0  0  0
 13 14  1  0  0  0  0
 14 15  1  0  0  0  0
 15 16  1  0  0  0  0
 16 17  4  0  0  0  0
 17 18  1  0  0  0  0
 17 19  4  0  0  0  0
 19 20  1  0  0  0  0
 19 21  4  0  0  0  0
 21 22  1  0  0  0  0
 21 23  4  0  0  0  0
 23 16  4  0  0  0  0
 15 24  1  0  0  0  0
 15 25  1  0  0  0  0
 14 26  1  0  0  0  0
 14 27  1  0  0  0  0
 13 28  1  0  0  0  0
 28 29  1  0  0  0  0
 28 30  1  0  0  0  0
 28 31  1  0  0  0  0
 31  6  1  0  0  0  0
 31 32  1  0  0  0  0
 31 33  1  0  0  0  0
  6 34  1  0  0  0  0
 34 35  1  0  0  0  0
 35 36  1  0  0  0  0
 36 37  1  0  0  0  0
 36 38  1  0  0  0  0
 36 39  1  0  0  0  0
 34 40  1  0  0  0  0
 34 41  1  0  0  0  0
  5 42  1  0  0  0  0
 42 43  1  0  0  0  0
 43 44  1  0  0  0  0
 44 45  1  0  0  0  0
 44 46  1  0  0  0  0
 44 47  1  0  0  0  0
 43 48  1  0  0  0  0
 43 49  1  0  0  0  0
 42 50  2  0  0  0  0
  4 51  4  0  0  0  0
 51 52  1  0  0  0  0
 51 53  4  0  0  0  0
 53 54  1  0  0  0  0
 53 55  4  0  0  0  0
 55  1  4  0  0  0  0
 55 56  1  0  0  0  0
  1 57  1  0  0  0  0
M  END
> <CAS>
56030-54-7

> <NAME>
SUFENTANIL

> <preferred_name>
Sufentanil

> <iupac>
N-{4-(methoxymethyl)-1-[2-(thiophen-2-yl)ethyl]piperidin-4-yl}-N-phenylpropanamide

> <SMILES>
CCC(=O)N(c1ccccc1)C1(COC)CCN(CCc2ccc[s]2)CC1

> <Canonical_QSARr>
CCC(=O)N(c1ccccc1)C1(COC)CCN(CCc2ccc[s]2)CC1

> <InChI_Code_QSARr>
InChI=1S/C22H30N2O2S/c1-3-21(25)24(19-8-5-4-6-9-19)22(18-26-2)12-15-23(16-13-22)14-11-20-10-7-17-27-20/h4-10,17H,3,11-16,18H2,1-2H3

> <InChI Key_QSARr>
GGCSSNBKKAUURC-UHFFFAOYSA-N

> <Salt_Solvent>
?

> <WS Temperature>
25

> <WS Reference>
ROY,SD & FLYNN,GL (1988)

> <dsstox_substance_id>
DTXSID6023604

> <LogMolar>
-3.7064

$$$$
56425-91-3
  -INDIGO-01081615412D

 37 38  0  0  0  0  0  0  0  0999 V2000
    0.0000    0.0000    0.0000 C   0  0  0  0  0  0  0  0  0  0  0  0
    0.0000    1.6000    0.0000 O   0  0  0  0  0  0  0  0  0  0  0  0
   -1.3856    2.4000    0.0000 H   0  0  0  0  0  0  0  0  0  0  0  0
    0.5473   -1.5036    0.0000 C   0  0  0  0  0  0  0  0  0  0  0  0
    0.8251   -3.0792    0.0000 C   0  0  0  0  0  0  0  0  0  0  0  0
    1.1029   -4.6549    0.0000 H   0  0  0  0  0  0  0  0  0  0  0  0
    2.3286   -3.6264    0.0000 H   0  0  0  0  0  0  0  0  0  0  0  0
   -0.4005   -4.1077    0.0000 H   0  0  0  0  0  0  0  0  0  0  0  0
    2.1228   -1.2257    0.0000 C   0  0  0  0  0  0  0  0  0  0  0  0
    3.3487   -2.2541    0.0000 H   0  0  0  0  0  0  0  0  0  0  0  0
    2.4513   -2.0570    0.0000 H   0  0  0  0  0  0  0  0  0  0  0  0
    2.4007    0.3500    0.0000 H   0  0  0  0  0  0  0  0  0  0  0  0
   -1.0285   -1.7813    0.0000 H   0  0  0  0  0  0  0  0  0  0  0  0
   -1.5999    0.0000    0.0000 C   0  0  0  0  0  0  0  0  0  0  0  0
   -2.3999    1.3856    0.0000 C   0  0  0  0  0  0  0  0  0  0  0  0
   -2.1221    2.9613    0.0000 H   0  0  0  0  0  0  0  0  0  0  0  0
   -4.0001    1.3856    0.0000 C   0  0  0  0  0  0  0  0  0  0  0  0
   -4.8001    2.7713    0.0000 H   0  0  0  0  0  0  0  0  0  0  0  0
   -4.8001    0.0000    0.0000 C   0  0  0  0  0  0  0  0  0  0  0  0
   -6.4001    0.0000    0.0000 O   0  0  0  0  0  0  0  0  0  0  0  0
   -7.2000    1.3856    0.0000 C   0  0  0  0  0  0  0  0  0  0  0  0
   -8.8000    1.3856    0.0000 F   0  0  0  0  0  0  0  0  0  0  0  0
   -8.0000    2.7713    0.0000 F   0  0  0  0  0  0  0  0  0  0  0  0
   -8.0000    0.0000    0.0000 F   0  0  0  0  0  0  0  0  0  0  0  0
   -4.0001   -1.3856    0.0000 C   0  0  0  0  0  0  0  0  0  0  0  0
   -4.8001   -2.7713    0.0000 H   0  0  0  0  0  0  0  0  0  0  0  0
   -2.3999   -1.3856    0.0000 C   0  0  0  0  0  0  0  0  0  0  0  0
   -1.5999   -2.7713    0.0000 H   0  0  0  0  0  0  0  0  0  0  0  0
    1.5035    0.5473    0.0000 C   0  0  0  0  0  0  0  0  0  0  0  0
    2.7291   -0.4812    0.0000 C   0  0  0  0  0  0  0  0  0  0  0  0
    3.5345   -0.8689    0.0000 H   0  0  0  0  0  0  0  0  0  0  0  0
    4.2328    0.0660    0.0000 N   0  0  0  1  0  0  0  0  0  0  0  0
    4.5106    1.6417    0.0000 C   0  0  0  0  0  0  0  0  0  0  0  0
    6.0140    2.1889    0.0000 H   0  0  0  0  0  0  0  0  0  0  0  0
    3.2850    2.6702    0.0000 N   0  0  0  1  0  0  0  0  0  0  0  0
    1.7813    2.1229    0.0000 C   0  0  0  0  0  0  0  0  0  0  0  0
    0.5557    3.1514    0.0000 H   0  0  0  0  0  0  0  0  0  0  0  0
  1  2  1  0  0  0  0
  2  3  1  0  0  0  0
  1  4  1  0  0  0  0
  4  5  1  0  0  0  0
  5  6  1  0  0  0  0
  5  7  1  0  0  0  0
  5  8  1  0  0  0  0
  4  9  1  0  0  0  0
  9 10  1  0  0  0  0
  9 11  1  0  0  0  0
  9 12  1  0  0  0  0
  4 13  1  0  0  0  0
  1 14  1  0  0  0  0
 14 15  4  0  0  0  0
 15 16  1  0  0  0  0
 15 17  4  0  0  0  0
 17 18  1  0  0  0  0
 17 19  4  0  0  0  0
 19 20  1  0  0  0  0
 20 21  1  0  0  0  0
 21 22  1  0  0  0  0
 21 23  1  0  0  0  0
 21 24  1  0  0  0  0
 19 25  4  0  0  0  0
 25 26  1  0  0  0  0
 25 27  4  0  0  0  0
 27 14  4  0  0  0  0
 27 28  1  0  0  0  0
  1 29  1  0  0  0  0
 29 30  4  0  0  0  0
 30 31  1  0  0  0  0
 30 32  4  0  0  0  0
 32 33  4  0  0  0  0
 33 34  1  0  0  0  0
 33 35  4  0  0  0  0
 35 36  4  0  0  0  0
 36 29  4  0  0  0  0
 36 37  1  0  0  0  0
M  END
> <CAS>
56425-91-3

> <NAME>
FLURPRIMIDOL

> <preferred_name>
Flurprimidol

> <iupac>
2-methyl-1-(pyrimidin-5-yl)-1-[4-(trifluoromethoxy)phenyl]propan-1-ol

> <SMILES>
CC(C)C(O)(c1ccc(cc1)OC(F)(F)F)c1c[n]c[n]c1

> <Canonical_QSARr>
CC(C)C(O)(c1ccc(cc1)OC(F)(F)F)c1c[n]c[n]c1

> <InChI_Code_QSARr>
InChI=1S/C15H15F3N2O2/c1-10(2)14(21,12-7-19-9-20-8-12)11-3-5-13(6-4-11)22-15(16,17)18/h3-10,21H,1-2H3

> <InChI Key_QSARr>
VEVZCONIUDBCDC-UHFFFAOYSA-N

> <Salt_Solvent>
?

> <WS Temperature>
20

> <WS Reference>
TOMLIN,C (1994)

> <dsstox_substance_id>
DTXSID3024108

> <LogMolar>
-3.4377

$$$$
56558-18-0
  -INDIGO-01081615412D

 22 23  0  0  0  0  0  0  0  0999 V2000
    2.4000   -1.3856    0.0000 C   0  0  0  0  0  0  0  0  0  0  0  0
    3.2000    0.0000    0.0000 C   0  0  0  0  0  0  0  0  0  0  0  0
    4.8000    0.0000    0.0000 Cl  0  0  0  0  0  0  0  0  0  0  0  0
    2.4000    1.3856    0.0000 C   0  0  0  0  0  0  0  0  0  0  0  0
    3.2000    2.7713    0.0000 H   0  0  0  0  0  0  0  0  0  0  0  0
    0.8001    1.3856    0.0000 C   0  0  0  0  0  0  0  0  0  0  0  0
    0.0001    2.7713    0.0000 Cl  0  0  0  0  0  0  0  0  0  0  0  0
    0.0001    0.0000    0.0000 C   0  0  0  0  0  0  0  0  0  0  0  0
   -1.6001    0.0000    0.0000 C   0  0  0  0  0  0  0  0  0  0  0  0
   -2.4001    1.3856    0.0000 C   0  0  0  0  0  0  0  0  0  0  0  0
   -1.6001    2.7713    0.0000 H   0  0  0  0  0  0  0  0  0  0  0  0
   -4.0000    1.3856    0.0000 C   0  0  0  0  0  0  0  0  0  0  0  0
   -4.8000    2.7713    0.0000 Cl  0  0  0  0  0  0  0  0  0  0  0  0
   -4.8000   -0.0000    0.0000 C   0  0  0  0  0  0  0  0  0  0  0  0
   -6.4000   -0.0000    0.0000 H   0  0  0  0  0  0  0  0  0  0  0  0
   -4.0000   -1.3856    0.0000 C   0  0  0  0  0  0  0  0  0  0  0  0
   -4.8000   -2.7713    0.0000 Cl  0  0  0  0  0  0  0  0  0  0  0  0
   -2.4001   -1.3856    0.0000 C   0  0  0  0  0  0  0  0  0  0  0  0
   -1.6001   -2.7713    0.0000 H   0  0  0  0  0  0  0  0  0  0  0  0
    0.8001   -1.3856    0.0000 C   0  0  0  0  0  0  0  0  0  0  0  0
    0.0001   -2.7713    0.0000 Cl  0  0  0  0  0  0  0  0  0  0  0  0
    3.2000   -2.7713    0.0000 H   0  0  0  0  0  0  0  0  0  0  0  0
  1  2  4  0  0  0  0
  2  3  1  0  0  0  0
  2  4  4  0  0  0  0
  4  5  1  0  0  0  0
  4  6  4  0  0  0  0
  6  7  1  0  0  0  0
  6  8  4  0  0  0  0
  8  9  1  0  0  0  0
  9 10  4  0  0  0  0
 10 11  1  0  0  0  0
 10 12  4  0  0  0  0
 12 13  1  0  0  0  0
 12 14  4  0  0  0  0
 14 15  1  0  0  0  0
 14 16  4  0  0  0  0
 16 17  1  0  0  0  0
 16 18  4  0  0  0  0
 18  9  4  0  0  0  0
 18 19  1  0  0  0  0
  8 20  4  0  0  0  0
 20  1  4  0  0  0  0
 20 21  1  0  0  0  0
  1 22  1  0  0  0  0
M  END
> <CAS>
56558-18-0

> <NAME>
1,1'-Biphenyl, 2,3',4,5',6-pentachloro-

> <preferred_name>


> <iupac>


> <SMILES>
Clc1cc(Cl)c(-c2cc(Cl)cc(Cl)c2)c(Cl)c1

> <Canonical_QSARr>
Clc1cc(Cl)c(-c2cc(Cl)cc(Cl)c2)c(Cl)c1

> <InChI_Code_QSARr>
InChI=1S/C12H5Cl5/c13-7-1-6(2-8(14)3-7)12-10(16)4-9(15)5-11(12)17/h1-5H

> <InChI Key_QSARr>
XBVSGJGMWSKAKL-UHFFFAOYSA-N

> <Salt_Solvent>
?

> <WS Temperature>
25

> <WS Reference>
PATIL,GS (1991)

> <dsstox_substance_id>


> <LogMolar>
-7.92

$$$$
57319-65-0
  -INDIGO-01081615412D

 18 19  0  0  0  0  0  0  0  0999 V2000
    2.4621   -0.8000    0.0000 O   0  0  0  0  0  0  0  0  0  0  0  0
    1.5216   -2.0944    0.0000 C   0  0  0  0  0  0  0  0  0  0  0  0
    2.0161   -3.6161    0.0000 O   0  0  0  0  0  0  0  0  0  0  0  0
    0.0001   -1.6000    0.0000 C   0  0  0  0  0  0  0  0  0  0  0  0
   -1.3856   -2.4000    0.0000 C   0  0  0  0  0  0  0  0  0  0  0  0
   -2.7713   -1.6000    0.0000 C   0  0  0  0  0  0  0  0  0  0  0  0
   -2.7713   -0.0000    0.0000 C   0  0  0  0  0  0  0  0  0  0  0  0
   -1.3856    0.8000    0.0000 C   0  0  0  0  0  0  0  0  0  0  0  0
   -1.3856    2.4000    0.0000 H   0  0  0  0  0  0  0  0  0  0  0  0
    0.0001   -0.0000    0.0000 C   0  0  0  0  0  0  0  0  0  0  0  0
    1.5216    0.4944    0.0000 C   0  0  0  0  0  0  0  0  0  0  0  0
    2.9073    1.2944    0.0000 H   0  0  0  0  0  0  0  0  0  0  0  0
    0.8709    1.9561    0.0000 H   0  0  0  0  0  0  0  0  0  0  0  0
   -4.1569    0.8000    0.0000 H   0  0  0  0  0  0  0  0  0  0  0  0
   -4.1569   -2.4000    0.0000 N   0  0  0  0  0  0  0  0  0  0  0  0
   -5.5426   -1.6000    0.0000 H   0  0  0  0  0  0  0  0  0  0  0  0
   -4.1569   -4.0000    0.0000 H   0  0  0  0  0  0  0  0  0  0  0  0
   -1.3856   -4.0000    0.0000 H   0  0  0  0  0  0  0  0  0  0  0  0
  1  2  1  0  0  0  0
  2  3  2  0  0  0  0
  2  4  1  0  0  0  0
  4  5  4  0  0  0  0
  5  6  4  0  0  0  0
  6  7  4  0  0  0  0
  7  8  4  0  0  0  0
  8  9  1  0  0  0  0
  8 10  4  0  0  0  0
 10  4  4  0  0  0  0
 10 11  1  0  0  0  0
 11  1  1  0  0  0  0
 11 12  1  0  0  0  0
 11 13  1  0  0  0  0
  7 14  1  0  0  0  0
  6 15  1  0  0  0  0
 15 16  1  0  0  0  0
 15 17  1  0  0  0  0
  5 18  1  0  0  0  0
M  END
> <CAS>
57319-65-0

> <NAME>
1(3H)-Isobenzofuranone, 6-amino-

> <preferred_name>
6-Aminophthalide

> <iupac>
6-amino-3H-2-benzofuran-1-one

> <SMILES>
Nc1cc2C(=O)OCc2cc1

> <Canonical_QSARr>
Nc1cc2C(=O)OCc2cc1

> <InChI_Code_QSARr>
InChI=1S/C8H7NO2/c9-6-2-1-5-4-11-8(10)7(5)3-6/h1-3H,4,9H2

> <InChI Key_QSARr>
ZIJZDNKZJZUROE-UHFFFAOYSA-N

> <Salt_Solvent>
?

> <WS Temperature>
25

> <WS Reference>
BEILSTEIN

> <dsstox_substance_id>
DTXSID40205936

> <LogMolar>
-2.0414

$$$$
57440-16-1
  -INDIGO-01081615412D

 31 31  0  0  0  0  0  0  0  0999 V2000
    2.4000   -1.3856    0.0000 C   0  0  0  0  0  0  0  0  0  0  0  0
    4.0001   -1.3856    0.0000 C   0  0  0  0  0  0  0  0  0  0  0  0
    5.6000   -1.3856    0.0000 H   0  0  0  0  0  0  0  0  0  0  0  0
    4.7999   -2.7713    0.0000 H   0  0  0  0  0  0  0  0  0  0  0  0
    4.7999   -0.0000    0.0000 H   0  0  0  0  0  0  0  0  0  0  0  0
    1.5999   -0.0000    0.0000 N   0  0  0  0  0  0  0  0  0  0  0  0
    2.4000    1.3856    0.0000 C   0  0  0  0  0  0  0  0  0  0  0  0
    3.2001    2.7713    0.0000 H   0  0  0  0  0  0  0  0  0  0  0  0
    4.0001    1.3856    0.0000 H   0  0  0  0  0  0  0  0  0  0  0  0
    1.5999    2.7713    0.0000 H   0  0  0  0  0  0  0  0  0  0  0  0
    0.0001   -0.0000    0.0000 C   0  0  0  0  0  0  0  0  0  0  0  0
   -1.6001   -0.0000    0.0000 C   0  0  0  0  0  0  0  0  0  0  0  0
   -3.1999   -0.0000    0.0000 O   0  0  0  0  0  0  0  0  0  0  0  0
   -4.0000    1.3856    0.0000 C   0  0  0  0  0  0  0  0  0  0  0  0
   -5.6001    1.3856    0.0000 C   0  0  0  0  0  0  0  0  0  0  0  0
   -6.3999    2.7713    0.0000 C   0  0  0  0  0  0  0  0  0  0  0  0
   -5.6001    4.1569    0.0000 H   0  0  0  0  0  0  0  0  0  0  0  0
   -8.0001    2.7713    0.0000 C   0  0  0  0  0  0  0  0  0  0  0  0
   -8.7999    4.1569    0.0000 H   0  0  0  0  0  0  0  0  0  0  0  0
   -8.8001    1.3856    0.0000 C   0  0  0  0  0  0  0  0  0  0  0  0
  -10.4000    1.3856    0.0000 H   0  0  0  0  0  0  0  0  0  0  0  0
   -8.0001   -0.0000    0.0000 C   0  0  0  0  0  0  0  0  0  0  0  0
   -8.8001   -1.3856    0.0000 H   0  0  0  0  0  0  0  0  0  0  0  0
   -6.3999   -0.0000    0.0000 C   0  0  0  0  0  0  0  0  0  0  0  0
   -5.6001   -1.3856    0.0000 H   0  0  0  0  0  0  0  0  0  0  0  0
   -3.1999    2.7713    0.0000 O   0  0  0  0  0  0  0  0  0  0  0  0
   -1.6001   -1.6000    0.0000 H   0  0  0  0  0  0  0  0  0  0  0  0
   -1.6001    1.6000    0.0000 H   0  0  0  0  0  0  0  0  0  0  0  0
    0.0001   -1.6000    0.0000 H   0  0  0  0  0  0  0  0  0  0  0  0
    0.0001    1.6000    0.0000 H   0  0  0  0  0  0  0  0  0  0  0  0
    1.5999   -2.7713    0.0000 O   0  0  0  0  0  0  0  0  0  0  0  0
  1  2  1  0  0  0  0
  2  3  1  0  0  0  0
  2  4  1  0  0  0  0
  2  5  1  0  0  0  0
  1  6  1  0  0  0  0
  6  7  1  0  0  0  0
  7  8  1  0  0  0  0
  7  9  1  0  0  0  0
  7 10  1  0  0  0  0
  6 11  1  0  0  0  0
 11 12  1  0  0  0  0
 12 13  1  0  0  0  0
 13 14  1  0  0  0  0
 14 15  1  0  0  0  0
 15 16  4  0  0  0  0
 16 17  1  0  0  0  0
 16 18  4  0  0  0  0
 18 19  1  0  0  0  0
 18 20  4  0  0  0  0
 20 21  1  0  0  0  0
 20 22  4  0  0  0  0
 22 23  1  0  0  0  0
 22 24  4  0  0  0  0
 24 15  4  0  0  0  0
 24 25  1  0  0  0  0
 14 26  2  0  0  0  0
 12 27  1  0  0  0  0
 12 28  1  0  0  0  0
 11 29  1  0  0  0  0
 11 30  1  0  0  0  0
  1 31  2  0  0  0  0
M  END
> <CAS>
57440-16-1

> <NAME>
ACETAMIDE, N-[2-(BENZOYLOXY)ETHYL]-N-METHYL-

> <preferred_name>


> <iupac>


> <SMILES>
CC(=O)N(C)CCOC(=O)c1ccccc1

> <Canonical_QSARr>
CC(=O)N(C)CCOC(=O)c1ccccc1

> <InChI_Code_QSARr>
InChI=1S/C12H15NO3/c1-10(14)13(2)8-9-16-12(15)11-6-4-3-5-7-11/h3-7H,8-9H2,1-2H3

> <InChI Key_QSARr>
XPLCQMPBJPQJNU-UHFFFAOYSA-N

> <Salt_Solvent>
?

> <WS Temperature>
22

> <WS Reference>
NIELSEN,NM & BUNDGAARD,H (1988)

> <dsstox_substance_id>


> <LogMolar>
-0.8494

$$$$
58010-91-6
  -INDIGO-01081615412D

 32 33  0  0  0  0  0  0  0  0999 V2000
    4.0001   -1.3856    0.0000 N   0  0  0  0  0  0  0  0  0  0  0  0
    2.3999   -1.3857    0.0000 C   0  0  0  0  0  0  0  0  0  0  0  0
    1.6000    0.0000    0.0000 C   0  0  0  0  0  0  0  0  0  0  0  0
    2.3999    1.3857    0.0000 H   0  0  0  0  0  0  0  0  0  0  0  0
    0.0001    0.0000    0.0000 C   0  0  0  0  0  0  0  0  0  0  0  0
   -0.8001    1.3856    0.0000 C   0  0  0  0  0  0  0  0  0  0  0  0
   -1.6000    2.7713    0.0000 H   0  0  0  0  0  0  0  0  0  0  0  0
   -2.4000    1.3856    0.0000 H   0  0  0  0  0  0  0  0  0  0  0  0
    0.0001    2.7713    0.0000 H   0  0  0  0  0  0  0  0  0  0  0  0
   -0.8001   -1.3857    0.0000 C   0  0  0  0  0  0  0  0  0  0  0  0
   -2.4000   -1.3857    0.0000 H   0  0  0  0  0  0  0  0  0  0  0  0
    0.0001   -2.7713    0.0000 C   0  0  0  0  0  0  0  0  0  0  0  0
   -0.8001   -4.1569    0.0000 H   0  0  0  0  0  0  0  0  0  0  0  0
    1.6000   -2.7713    0.0000 C   0  0  0  0  0  0  0  0  0  0  0  0
    2.3999   -4.1569    0.0000 N   0  0  0  0  0  0  0  0  0  0  0  0
    1.6000   -5.5426    0.0000 H   0  0  0  0  0  0  0  0  0  0  0  0
    4.0001   -4.1569    0.0000 H   0  0  0  0  0  0  0  0  0  0  0  0
    4.8000   -2.7713    0.0000 N   0  0  0  0  0  0  0  0  0  0  0  0
    6.3999   -2.7713    0.0000 C   0  0  0  0  0  0  0  0  0  0  0  0
    7.2001   -4.1569    0.0000 C   0  0  0  0  0  0  0  0  0  0  0  0
    6.3999   -5.5426    0.0000 H   0  0  0  0  0  0  0  0  0  0  0  0
    8.8000   -4.1569    0.0000 C   0  0  0  0  0  0  0  0  0  0  0  0
    9.6000   -5.5426    0.0000 H   0  0  0  0  0  0  0  0  0  0  0  0
    9.6000   -2.7713    0.0000 C   0  0  0  0  0  0  0  0  0  0  0  0
   11.2001   -2.7713    0.0000 C   0  0  0  0  0  0  0  0  0  0  0  0
   12.8000   -2.7713    0.0000 H   0  0  0  0  0  0  0  0  0  0  0  0
   12.0001   -4.1569    0.0000 H   0  0  0  0  0  0  0  0  0  0  0  0
   12.0001   -1.3856    0.0000 H   0  0  0  0  0  0  0  0  0  0  0  0
    8.8000   -1.3856    0.0000 C   0  0  0  0  0  0  0  0  0  0  0  0
    9.6000    0.0000    0.0000 H   0  0  0  0  0  0  0  0  0  0  0  0
    7.2001   -1.3856    0.0000 C   0  0  0  0  0  0  0  0  0  0  0  0
    6.3999    0.0000    0.0000 H   0  0  0  0  0  0  0  0  0  0  0  0
  1  2  1  0  0  0  0
  2  3  4  0  0  0  0
  3  4  1  0  0  0  0
  3  5  4  0  0  0  0
  5  6  1  0  0  0  0
  6  7  1  0  0  0  0
  6  8  1  0  0  0  0
  6  9  1  0  0  0  0
  5 10  4  0  0  0  0
 10 11  1  0  0  0  0
 10 12  4  0  0  0  0
 12 13  1  0  0  0  0
 12 14  4  0  0  0  0
 14  2  4  0  0  0  0
 14 15  1  0  0  0  0
 15 16  1  0  0  0  0
 15 17  1  0  0  0  0
  1 18  2  0  0  0  0
 18 19  1  0  0  0  0
 19 20  4  0  0  0  0
 20 21  1  0  0  0  0
 20 22  4  0  0  0  0
 22 23  1  0  0  0  0
 22 24  4  0  0  0  0
 24 25  1  0  0  0  0
 25 26  1  0  0  0  0
 25 27  1  0  0  0  0
 25 28  1  0  0  0  0
 24 29  4  0  0  0  0
 29 30  1  0  0  0  0
 29 31  4  0  0  0  0
 31 19  4  0  0  0  0
 31 32  1  0  0  0  0
M  END
> <CAS>
58010-91-6

> <NAME>
Benzenamine, 4-methyl-2-[(4-methylphenyl)azo]-

> <preferred_name>
4-Methyl-2-p-tolylazo-phenylamine

> <iupac>
C14H15N3

> <SMILES>
Cc1ccc(cc1)/N=N/c1cc(C)ccc1N

> <Canonical_QSARr>
Cc1ccc(cc1)N=Nc1cc(C)ccc1N

> <InChI_Code_QSARr>
InChI=1S/C14H15N3/c1-10-3-6-12(7-4-10)16-17-14-9-11(2)5-8-13(14)15/h3-9H,15H2,1-2H3/b17-16+

> <InChI Key_QSARr>
BBVUAJTZGSWJDD-WUKNDPDISA-N

> <Salt_Solvent>
?

> <WS Temperature>
25

> <WS Reference>
BEILSTEIN

> <dsstox_substance_id>
DTXSID70341270

> <LogMolar>
-3.9031

$$$$
58585-89-0
  -INDIGO-01081615412D

 18 18  0  0  0  0  0  0  0  0999 V2000
    0.0001   -0.0000    0.0000 C   0  0  0  0  0  0  0  0  0  0  0  0
    1.3857    0.8000    0.0000 S   0  0  0  0  0  0  0  0  0  0  0  0
    2.1856   -0.5856    0.0000 O   0  0  0  0  0  0  0  0  0  0  0  0
    2.7713    1.6000    0.0000 O   0  0  0  0  0  0  0  0  0  0  0  0
    4.1569    0.8000    0.0000 H   0  0  0  0  0  0  0  0  0  0  0  0
    0.5856    2.1856    0.0000 O   0  0  0  0  0  0  0  0  0  0  0  0
   -1.3857    0.8000    0.0000 C   0  0  0  0  0  0  0  0  0  0  0  0
   -1.3857    2.4000    0.0000 Br  0  0  0  0  0  0  0  0  0  0  0  0
   -2.7713   -0.0000    0.0000 C   0  0  0  0  0  0  0  0  0  0  0  0
   -4.1569    0.8000    0.0000 N   0  0  0  0  0  0  0  0  0  0  0  0
   -5.5426   -0.0000    0.0000 H   0  0  0  0  0  0  0  0  0  0  0  0
   -4.1569    2.4000    0.0000 H   0  0  0  0  0  0  0  0  0  0  0  0
   -2.7713   -1.6000    0.0000 C   0  0  0  0  0  0  0  0  0  0  0  0
   -4.1569   -2.4000    0.0000 Br  0  0  0  0  0  0  0  0  0  0  0  0
   -1.3857   -2.4000    0.0000 C   0  0  0  0  0  0  0  0  0  0  0  0
   -1.3857   -4.0000    0.0000 H   0  0  0  0  0  0  0  0  0  0  0  0
    0.0001   -1.6000    0.0000 C   0  0  0  0  0  0  0  0  0  0  0  0
    1.3857   -2.4000    0.0000 Br  0  0  0  0  0  0  0  0  0  0  0  0
  1  2  1  0  0  0  0
  2  3  2  0  0  0  0
  2  4  1  0  0  0  0
  4  5  1  0  0  0  0
  2  6  2  0  0  0  0
  1  7  4  0  0  0  0
  7  8  1  0  0  0  0
  7  9  4  0  0  0  0
  9 10  1  0  0  0  0
 10 11  1  0  0  0  0
 10 12  1  0  0  0  0
  9 13  4  0  0  0  0
 13 14  1  0  0  0  0
 13 15  4  0  0  0  0
 15 16  1  0  0  0  0
 15 17  4  0  0  0  0
 17  1  4  0  0  0  0
 17 18  1  0  0  0  0
M  END
> <CAS>
58585-89-0

> <NAME>
Benzenesulfonic acid, 3-amino-2,4,6-tribromo-

> <preferred_name>


> <iupac>


> <SMILES>
Nc1c(Br)cc(Br)c(c1Br)S(O)(=O)=O

> <Canonical_QSARr>
Nc1c(Br)cc(Br)c(c1Br)S(O)(=O)=O

> <InChI_Code_QSARr>
InChI=1S/C6H4Br3NO3S/c7-2-1-3(8)6(14(11,12)13)4(9)5(2)10/h1H,10H2,(H,11,12,13)

> <InChI Key_QSARr>
UDUMKWWIWPPSHW-UHFFFAOYSA-N

> <Salt_Solvent>
?

> <WS Temperature>
22

> <WS Reference>
BEILSTEIN

> <dsstox_substance_id>


> <LogMolar>
-0.4888

$$$$
59259-32-4
  -INDIGO-01081615412D

 23 22  0  0  0  0  0  0  0  0999 V2000
    4.0001   -1.3857    0.0000 P   0  0  0  0  0  0  0  0  0  0  0  0
    2.6144   -2.1856    0.0000 O   0  0  0  0  0  0  0  0  0  0  0  0
    4.8000   -2.7713    0.0000 O   0  0  0  0  0  0  0  0  0  0  0  0
    6.4000   -2.7713    0.0000 C   0  0  0  0  0  0  0  0  0  0  0  0
    8.0000   -2.7713    0.0000 H   0  0  0  0  0  0  0  0  0  0  0  0
    7.2000   -4.1569    0.0000 H   0  0  0  0  0  0  0  0  0  0  0  0
    7.2000   -1.3857    0.0000 H   0  0  0  0  0  0  0  0  0  0  0  0
    5.3857   -0.5857    0.0000 O   0  0  0  0  0  0  0  0  0  0  0  0
    5.3857    1.0144    0.0000 C   0  0  0  0  0  0  0  0  0  0  0  0
    6.7712    1.8143    0.0000 H   0  0  0  0  0  0  0  0  0  0  0  0
    5.3856    2.6144    0.0000 H   0  0  0  0  0  0  0  0  0  0  0  0
    4.0001    1.8143    0.0000 H   0  0  0  0  0  0  0  0  0  0  0  0
    3.2001   -0.0000    0.0000 O   0  0  0  0  0  0  0  0  0  0  0  0
    1.5999   -0.0000    0.0000 C   0  0  0  0  0  0  0  0  0  0  0  0
   -0.0000   -0.0000    0.0000 C   0  0  0  0  0  0  0  0  0  0  0  0
   -1.6000   -0.0000    0.0000 C   0  0  0  0  0  0  0  0  0  0  0  0
   -3.2000   -0.0000    0.0000 H   0  0  0  0  0  0  0  0  0  0  0  0
   -2.4000   -1.3857    0.0000 H   0  0  0  0  0  0  0  0  0  0  0  0
   -2.4000    1.3856    0.0000 H   0  0  0  0  0  0  0  0  0  0  0  0
   -0.0000    1.6000    0.0000 H   0  0  0  0  0  0  0  0  0  0  0  0
   -0.0000   -1.6000    0.0000 H   0  0  0  0  0  0  0  0  0  0  0  0
    1.5999   -1.6000    0.0000 H   0  0  0  0  0  0  0  0  0  0  0  0
    1.5999    1.6000    0.0000 H   0  0  0  0  0  0  0  0  0  0  0  0
  1  2  2  0  0  0  0
  1  3  1  0  0  0  0
  3  4  1  0  0  0  0
  4  5  1  0  0  0  0
  4  6  1  0  0  0  0
  4  7  1  0  0  0  0
  1  8  1  0  0  0  0
  8  9  1  0  0  0  0
  9 10  1  0  0  0  0
  9 11  1  0  0  0  0
  9 12  1  0  0  0  0
  1 13  1  0  0  0  0
 13 14  1  0  0  0  0
 14 15  1  0  0  0  0
 15 16  1  0  0  0  0
 16 17  1  0  0  0  0
 16 18  1  0  0  0  0
 16 19  1  0  0  0  0
 15 20  1  0  0  0  0
 15 21  1  0  0  0  0
 14 22  1  0  0  0  0
 14 23  1  0  0  0  0
M  END
> <CAS>
59259-32-4

> <NAME>
Phosphoric acid, dimethyl propyl ester

> <preferred_name>
PUBCHEM_12494392

> <iupac>
C5H13O4P

> <SMILES>
CCCOP(=O)(OC)OC

> <Canonical_QSARr>
CCCOP(=O)(OC)OC

> <InChI_Code_QSARr>
InChI=1S/C5H13O4P/c1-4-5-9-10(6,7-2)8-3/h4-5H2,1-3H3

> <InChI Key_QSARr>
GMSOIBLTSDGVEX-UHFFFAOYSA-N

> <Salt_Solvent>
?

> <WS Temperature>
25

> <WS Reference>
BEILSTEIN

> <dsstox_substance_id>
DTXSID90500322

> <LogMolar>
0.4733

$$$$
59669-26-0
  -INDIGO-01081615412D

 39 38  0  0  0  0  0  0  0  0999 V2000
    0.7999   -1.3857    0.0000 C   0  0  0  0  0  0  0  0  0  0  0  0
   -0.0001   -0.0000    0.0000 N   0  0  0  0  0  0  0  0  0  0  0  0
   -1.6001   -0.0000    0.0000 C   0  0  0  0  0  0  0  0  0  0  0  0
   -2.4000    1.3856    0.0000 O   0  0  0  0  0  0  0  0  0  0  0  0
   -4.0000    1.3856    0.0000 N   0  0  0  0  0  0  0  0  0  0  0  0
   -4.8000    2.7713    0.0000 C   0  0  0  0  0  0  0  0  0  0  0  0
   -6.4000    2.7713    0.0000 C   0  0  0  0  0  0  0  0  0  0  0  0
   -8.0000    2.7713    0.0000 H   0  0  0  0  0  0  0  0  0  0  0  0
   -7.2000    4.1570    0.0000 H   0  0  0  0  0  0  0  0  0  0  0  0
   -7.2000    1.3856    0.0000 H   0  0  0  0  0  0  0  0  0  0  0  0
   -4.0000    4.1570    0.0000 S   0  0  0  0  0  0  0  0  0  0  0  0
   -4.8000    5.5426    0.0000 C   0  0  0  0  0  0  0  0  0  0  0  0
   -5.6000    6.9282    0.0000 H   0  0  0  0  0  0  0  0  0  0  0  0
   -4.0000    6.9282    0.0000 H   0  0  0  0  0  0  0  0  0  0  0  0
   -3.2000    5.5426    0.0000 H   0  0  0  0  0  0  0  0  0  0  0  0
   -2.4000   -1.3857    0.0000 O   0  0  0  0  0  0  0  0  0  0  0  0
    0.7999    1.3856    0.0000 S   0  0  0  0  0  0  0  0  0  0  0  0
    2.1857    2.1857    0.0000 N   0  0  0  0  0  0  0  0  0  0  0  0
    2.1857    3.7856    0.0000 C   0  0  0  0  0  0  0  0  0  0  0  0
    2.1857    5.3857    0.0000 H   0  0  0  0  0  0  0  0  0  0  0  0
    3.5714    4.5856    0.0000 H   0  0  0  0  0  0  0  0  0  0  0  0
    0.7999    4.5856    0.0000 H   0  0  0  0  0  0  0  0  0  0  0  0
    3.5714    1.3856    0.0000 C   0  0  0  0  0  0  0  0  0  0  0  0
    4.9568    2.1857    0.0000 O   0  0  0  0  0  0  0  0  0  0  0  0
    6.3426    1.3856    0.0000 N   0  0  0  0  0  0  0  0  0  0  0  0
    7.7283    2.1857    0.0000 C   0  0  0  0  0  0  0  0  0  0  0  0
    9.1138    1.3856    0.0000 C   0  0  0  0  0  0  0  0  0  0  0  0
   10.4995    0.5856    0.0000 H   0  0  0  0  0  0  0  0  0  0  0  0
   10.4995    2.1857    0.0000 H   0  0  0  0  0  0  0  0  0  0  0  0
    9.1138   -0.2144    0.0000 H   0  0  0  0  0  0  0  0  0  0  0  0
    7.7283    3.7856    0.0000 S   0  0  0  0  0  0  0  0  0  0  0  0
    9.1138    4.5856    0.0000 C   0  0  0  0  0  0  0  0  0  0  0  0
   10.4995    5.3857    0.0000 H   0  0  0  0  0  0  0  0  0  0  0  0
    9.1138    6.1857    0.0000 H   0  0  0  0  0  0  0  0  0  0  0  0
    7.7283    5.3857    0.0000 H   0  0  0  0  0  0  0  0  0  0  0  0
    3.5714   -0.2144    0.0000 O   0  0  0  0  0  0  0  0  0  0  0  0
    1.5999   -2.7713    0.0000 H   0  0  0  0  0  0  0  0  0  0  0  0
   -0.0001   -2.7713    0.0000 H   0  0  0  0  0  0  0  0  0  0  0  0
    2.3999   -1.3857    0.0000 H   0  0  0  0  0  0  0  0  0  0  0  0
  1  2  1  0  0  0  0
  2  3  1  0  0  0  0
  3  4  1  0  0  0  0
  4  5  1  0  0  0  0
  5  6  2  0  0  0  0
  6  7  1  0  0  0  0
  7  8  1  0  0  0  0
  7  9  1  0  0  0  0
  7 10  1  0  0  0  0
  6 11  1  0  0  0  0
 11 12  1  0  0  0  0
 12 13  1  0  0  0  0
 12 14  1  0  0  0  0
 12 15  1  0  0  0  0
  3 16  2  0  0  0  0
  2 17  1  0  0  0  0
 17 18  1  0  0  0  0
 18 19  1  0  0  0  0
 19 20  1  0  0  0  0
 19 21  1  0  0  0  0
 19 22  1  0  0  0  0
 18 23  1  0  0  0  0
 23 24  1  0  0  0  0
 24 25  1  0  0  0  0
 25 26  2  0  0  0  0
 26 27  1  0  0  0  0
 27 28  1  0  0  0  0
 27 29  1  0  0  0  0
 27 30  1  0  0  0  0
 26 31  1  0  0  0  0
 31 32  1  0  0  0  0
 32 33  1  0  0  0  0
 32 34  1  0  0  0  0
 32 35  1  0  0  0  0
 23 36  2  0  0  0  0
  1 37  1  0  0  0  0
  1 38  1  0  0  0  0
  1 39  1  0  0  0  0
M  END
> <CAS>
59669-26-0

> <NAME>
THIODICARB

> <preferred_name>
Thiodicarb

> <iupac>
dimethyl (1E,1'E)-N,N'-{sulfanediylbis[(methylcarbamoyl)oxy]}diethanimidothioate

> <SMILES>
CN(SN(C)C(=O)O/N=C(\C)/SC)C(=O)O/N=C(\C)/SC

> <Canonical_QSARr>
CN(SN(C)C(=O)ON=C(C)SC)C(=O)ON=C(C)SC

> <InChI_Code_QSARr>
InChI=1S/C10H18N4O4S3/c1-7(19-5)11-17-9(15)13(3)21-14(4)10(16)18-12-8(2)20-6/h1-6H3/b11-7-,12-8-

> <InChI Key_QSARr>
XDOTVMNBCQVZKG-OXAWKVHCSA-N

> <Salt_Solvent>
?

> <WS Temperature>
25

> <WS Reference>
TOMLIN,C (1997)

> <dsstox_substance_id>
DTXSID0032578

> <LogMolar>
-4.13725

$$$$
60145-22-4
  -INDIGO-01081615412D

 22 23  0  0  0  0  0  0  0  0999 V2000
    3.2000    0.0000    0.0000 C   0  0  0  0  0  0  0  0  0  0  0  0
    4.8000    0.0000    0.0000 Cl  0  0  0  0  0  0  0  0  0  0  0  0
    2.4000    1.3856    0.0000 C   0  0  0  0  0  0  0  0  0  0  0  0
    3.2000    2.7713    0.0000 H   0  0  0  0  0  0  0  0  0  0  0  0
    0.8001    1.3856    0.0000 C   0  0  0  0  0  0  0  0  0  0  0  0
    0.0001    2.7713    0.0000 Cl  0  0  0  0  0  0  0  0  0  0  0  0
    0.0001    0.0000    0.0000 C   0  0  0  0  0  0  0  0  0  0  0  0
   -1.6001   -0.0000    0.0000 C   0  0  0  0  0  0  0  0  0  0  0  0
   -2.4001    1.3856    0.0000 C   0  0  0  0  0  0  0  0  0  0  0  0
   -1.6001    2.7713    0.0000 H   0  0  0  0  0  0  0  0  0  0  0  0
   -4.0000    1.3856    0.0000 C   0  0  0  0  0  0  0  0  0  0  0  0
   -4.8000    2.7713    0.0000 Cl  0  0  0  0  0  0  0  0  0  0  0  0
   -4.8000   -0.0000    0.0000 C   0  0  0  0  0  0  0  0  0  0  0  0
   -6.4000   -0.0000    0.0000 Cl  0  0  0  0  0  0  0  0  0  0  0  0
   -4.0000   -1.3856    0.0000 C   0  0  0  0  0  0  0  0  0  0  0  0
   -4.8000   -2.7713    0.0000 H   0  0  0  0  0  0  0  0  0  0  0  0
   -2.4001   -1.3856    0.0000 C   0  0  0  0  0  0  0  0  0  0  0  0
   -1.6001   -2.7713    0.0000 Cl  0  0  0  0  0  0  0  0  0  0  0  0
    0.8001   -1.3856    0.0000 C   0  0  0  0  0  0  0  0  0  0  0  0
    0.0001   -2.7713    0.0000 Cl  0  0  0  0  0  0  0  0  0  0  0  0
    2.4000   -1.3856    0.0000 C   0  0  0  0  0  0  0  0  0  0  0  0
    3.2000   -2.7713    0.0000 H   0  0  0  0  0  0  0  0  0  0  0  0
  1  2  1  0  0  0  0
  1  3  4  0  0  0  0
  3  4  1  0  0  0  0
  3  5  4  0  0  0  0
  5  6  1  0  0  0  0
  5  7  4  0  0  0  0
  7  8  1  0  0  0  0
  8  9  4  0  0  0  0
  9 10  1  0  0  0  0
  9 11  4  0  0  0  0
 11 12  1  0  0  0  0
 11 13  4  0  0  0  0
 13 14  1  0  0  0  0
 13 15  4  0  0  0  0
 15 16  1  0  0  0  0
 15 17  4  0  0  0  0
 17  8  4  0  0  0  0
 17 18  1  0  0  0  0
  7 19  4  0  0  0  0
 19 20  1  0  0  0  0
 19 21  4  0  0  0  0
 21  1  4  0  0  0  0
 21 22  1  0  0  0  0
M  END
> <CAS>
60145-22-4

> <NAME>
1,1'-Biphenyl, 2,2',4,4',5,6'-hexachloro-

> <preferred_name>
2,2',4,4',5,6'-Hexachlorobiphenyl

> <iupac>
1,2,4-trichloro-5-(2,4,6-trichlorophenyl)benzene

> <SMILES>
Clc1cc(Cl)c(-c2cc(Cl)c(Cl)cc2Cl)c(Cl)c1

> <Canonical_QSARr>
Clc1cc(Cl)c(-c2cc(Cl)c(Cl)cc2Cl)c(Cl)c1

> <InChI_Code_QSARr>
InChI=1S/C12H4Cl6/c13-5-1-10(17)12(11(18)2-5)6-3-8(15)9(16)4-7(6)14/h1-4H

> <InChI Key_QSARr>
QXZHEJWDLVUFFB-UHFFFAOYSA-N

> <Salt_Solvent>
?

> <WS Temperature>
25

> <WS Reference>
PATIL,GS (1991)

> <dsstox_substance_id>
DTXSID4074190

> <LogMolar>
-8.1199

$$$$
60166-93-0
  -INDIGO-01081615412D

 53 53  0  0  0  0  0  0  0  0999 V2000
   -6.9283   -0.8000    0.0000 C   0  0  0  0  0  0  0  0  0  0  0  0
   -8.3138    0.0000    0.0000 C   0  0  0  0  0  0  0  0  0  0  0  0
   -8.3138    1.6000    0.0000 O   0  0  0  0  0  0  0  0  0  0  0  0
   -9.6994   -0.8000    0.0000 N   0  0  0  0  0  0  0  0  0  0  0  0
  -11.0850    0.0000    0.0000 C   0  0  0  0  0  0  0  0  0  0  0  0
  -12.4708    0.8000    0.0000 C   0  0  0  0  0  0  0  0  0  0  0  0
  -13.8564    1.6000    0.0000 O   0  0  0  0  0  0  0  0  0  0  0  0
  -13.8564    3.2000    0.0000 H   0  0  0  0  0  0  0  0  0  0  0  0
  -13.3393    0.1971    0.0000 H   0  0  0  0  0  0  0  0  0  0  0  0
  -11.6708    2.1856    0.0000 H   0  0  0  0  0  0  0  0  0  0  0  0
  -12.3107   -1.0285    0.0000 C   0  0  0  0  0  0  0  0  0  0  0  0
  -13.5365   -2.0570    0.0000 O   0  0  0  0  0  0  0  0  0  0  0  0
  -13.2586   -3.6327    0.0000 H   0  0  0  0  0  0  0  0  0  0  0  0
  -13.2708   -0.5856    0.0000 H   0  0  0  0  0  0  0  0  0  0  0  0
  -11.2824   -2.2541    0.0000 H   0  0  0  0  0  0  0  0  0  0  0  0
  -10.2850    1.3856    0.0000 H   0  0  0  0  0  0  0  0  0  0  0  0
   -9.6994   -2.4000    0.0000 H   0  0  0  0  0  0  0  0  0  0  0  0
   -6.9283   -2.4000    0.0000 C   0  0  0  0  0  0  0  0  0  0  0  0
   -8.3138   -3.2000    0.0000 I   0  0  0  0  0  0  0  0  0  0  0  0
   -5.5424   -3.2000    0.0000 C   0  0  0  0  0  0  0  0  0  0  0  0
   -5.5424   -4.8000    0.0000 N   0  0  0  0  0  0  0  0  0  0  0  0
   -4.1569   -5.6000    0.0000 C   0  0  0  0  0  0  0  0  0  0  0  0
   -4.1569   -7.2000    0.0000 C   0  0  0  0  0  0  0  0  0  0  0  0
   -4.1569   -8.8000    0.0000 C   0  0  0  0  0  0  0  0  0  0  0  0
   -4.1569  -10.4000    0.0000 H   0  0  0  0  0  0  0  0  0  0  0  0
   -2.7713   -9.6000    0.0000 H   0  0  0  0  0  0  0  0  0  0  0  0
   -5.5424   -9.6000    0.0000 H   0  0  0  0  0  0  0  0  0  0  0  0
   -2.5569   -7.2000    0.0000 O   0  0  0  0  0  0  0  0  0  0  0  0
   -1.7569   -8.5856    0.0000 H   0  0  0  0  0  0  0  0  0  0  0  0
   -5.7568   -7.2000    0.0000 H   0  0  0  0  0  0  0  0  0  0  0  0
   -2.7713   -4.8000    0.0000 O   0  0  0  0  0  0  0  0  0  0  0  0
   -6.9283   -5.6000    0.0000 H   0  0  0  0  0  0  0  0  0  0  0  0
   -4.1569   -2.4000    0.0000 C   0  0  0  0  0  0  0  0  0  0  0  0
   -2.7713   -3.2000    0.0000 I   0  0  0  0  0  0  0  0  0  0  0  0
   -4.1569   -0.8000    0.0000 C   0  0  0  0  0  0  0  0  0  0  0  0
   -2.7713    0.0000    0.0000 C   0  0  0  0  0  0  0  0  0  0  0  0
   -2.7713    1.6000    0.0000 O   0  0  0  0  0  0  0  0  0  0  0  0
   -1.3857   -0.8000    0.0000 N   0  0  0  0  0  0  0  0  0  0  0  0
    0.0001    0.0000    0.0000 C   0  0  0  0  0  0  0  0  0  0  0  0
    1.3857    0.8000    0.0000 C   0  0  0  0  0  0  0  0  0  0  0  0
    2.7713    1.6000    0.0000 O   0  0  0  0  0  0  0  0  0  0  0  0
    2.7713    3.2000    0.0000 H   0  0  0  0  0  0  0  0  0  0  0  0
    2.2542    0.1971    0.0000 H   0  0  0  0  0  0  0  0  0  0  0  0
    0.5857    2.1856    0.0000 H   0  0  0  0  0  0  0  0  0  0  0  0
    1.2256   -1.0285    0.0000 C   0  0  0  0  0  0  0  0  0  0  0  0
    2.4513   -2.0570    0.0000 O   0  0  0  0  0  0  0  0  0  0  0  0
    2.1735   -3.6327    0.0000 H   0  0  0  0  0  0  0  0  0  0  0  0
    2.1857   -0.5856    0.0000 H   0  0  0  0  0  0  0  0  0  0  0  0
    0.1973   -2.2541    0.0000 H   0  0  0  0  0  0  0  0  0  0  0  0
   -0.8001    1.3856    0.0000 H   0  0  0  0  0  0  0  0  0  0  0  0
   -1.3857   -2.4000    0.0000 H   0  0  0  0  0  0  0  0  0  0  0  0
   -5.5424    0.0000    0.0000 C   0  0  0  0  0  0  0  0  0  0  0  0
   -5.5427    1.6000    0.0000 I   0  0  0  0  0  0  0  0  0  0  0  0
  1  2  1  0  0  0  0
  2  3  2  0  0  0  0
  2  4  1  0  0  0  0
  4  5  1  0  0  0  0
  5  6  1  0  0  0  0
  6  7  1  0  0  0  0
  7  8  1  0  0  0  0
  6  9  1  0  0  0  0
  6 10  1  0  0  0  0
  5 11  1  0  0  0  0
 11 12  1  0  0  0  0
 12 13  1  0  0  0  0
 11 14  1  0  0  0  0
 11 15  1  0  0  0  0
  5 16  1  0  0  0  0
  4 17  1  0  0  0  0
  1 18  4  0  0  0  0
 18 19  1  0  0  0  0
 18 20  4  0  0  0  0
 20 21  1  0  0  0  0
 21 22  1  0  0  0  0
 22 23  1  0  0  0  0
 23 24  1  0  0  0  0
 24 25  1  0  0  0  0
 24 26  1  0  0  0  0
 24 27  1  0  0  0  0
 23 28  1  0  0  0  0
 28 29  1  0  0  0  0
 23 30  1  0  0  0  0
 22 31  2  0  0  0  0
 21 32  1  0  0  0  0
 20 33  4  0  0  0  0
 33 34  1  0  0  0  0
 33 35  4  0  0  0  0
 35 36  1  0  0  0  0
 36 37  2  0  0  0  0
 36 38  1  0  0  0  0
 38 39  1  0  0  0  0
 39 40  1  0  0  0  0
 40 41  1  0  0  0  0
 41 42  1  0  0  0  0
 40 43  1  0  0  0  0
 40 44  1  0  0  0  0
 39 45  1  0  0  0  0
 45 46  1  0  0  0  0
 46 47  1  0  0  0  0
 45 48  1  0  0  0  0
 45 49  1  0  0  0  0
 39 50  1  0  0  0  0
 38 51  1  0  0  0  0
 35 52  4  0  0  0  0
 52  1  4  0  0  0  0
 52 53  1  0  0  0  0
M  END
> <CAS>
60166-93-0

> <NAME>
Iopamidol

> <preferred_name>
Iopamidol

> <iupac>
C17H22I3N3O8

> <SMILES>
C[C@H](O)C(=O)Nc1c(I)c(c(I)c(c1I)C(=O)NC(CO)CO)C(=O)NC(CO)CO

> <Canonical_QSARr>
CC(O)C(=O)Nc1c(I)c(c(I)c(c1I)C(=O)NC(CO)CO)C(=O)NC(CO)CO

> <InChI_Code_QSARr>
InChI=1S/C17H22I3N3O8/c1-6(28)15(29)23-14-12(19)9(16(30)21-7(2-24)3-25)11(18)10(13(14)20)17(31)22-8(4-26)5-27/h6-8,24-28H,2-5H2,1H3,(H,21,30)(H,22,31)(H,23,29)

> <InChI Key_QSARr>
XQZXYNRDCRIARQ-UHFFFAOYSA-N

> <Salt_Solvent>
?

> <WS Temperature>
20

> <WS Reference>
YALKOWSKY,SH & DANNENFELSER,RM (1992)

> <dsstox_substance_id>
DTXSID1023158

> <LogMolar>
-0.7443

$$$$
60233-24-1
  -INDIGO-01081615412D

 22 23  0  0  0  0  0  0  0  0999 V2000
    0.0001   -2.7713    0.0000 Cl  0  0  0  0  0  0  0  0  0  0  0  0
    0.8001   -1.3856    0.0000 C   0  0  0  0  0  0  0  0  0  0  0  0
    2.4000   -1.3856    0.0000 C   0  0  0  0  0  0  0  0  0  0  0  0
    3.2000   -2.7713    0.0000 H   0  0  0  0  0  0  0  0  0  0  0  0
    3.2000    0.0000    0.0000 C   0  0  0  0  0  0  0  0  0  0  0  0
    4.8000    0.0000    0.0000 Cl  0  0  0  0  0  0  0  0  0  0  0  0
    2.4000    1.3856    0.0000 C   0  0  0  0  0  0  0  0  0  0  0  0
    3.2000    2.7713    0.0000 H   0  0  0  0  0  0  0  0  0  0  0  0
    0.8001    1.3856    0.0000 C   0  0  0  0  0  0  0  0  0  0  0  0
    0.0001    2.7713    0.0000 Cl  0  0  0  0  0  0  0  0  0  0  0  0
    0.0001    0.0000    0.0000 C   0  0  0  0  0  0  0  0  0  0  0  0
   -1.6001    0.0000    0.0000 C   0  0  0  0  0  0  0  0  0  0  0  0
   -2.4001    1.3856    0.0000 C   0  0  0  0  0  0  0  0  0  0  0  0
   -1.6001    2.7713    0.0000 H   0  0  0  0  0  0  0  0  0  0  0  0
   -4.0000    1.3856    0.0000 C   0  0  0  0  0  0  0  0  0  0  0  0
   -4.8000    2.7713    0.0000 Cl  0  0  0  0  0  0  0  0  0  0  0  0
   -4.8000   -0.0000    0.0000 C   0  0  0  0  0  0  0  0  0  0  0  0
   -6.4000   -0.0000    0.0000 H   0  0  0  0  0  0  0  0  0  0  0  0
   -4.0000   -1.3856    0.0000 C   0  0  0  0  0  0  0  0  0  0  0  0
   -4.8000   -2.7713    0.0000 H   0  0  0  0  0  0  0  0  0  0  0  0
   -2.4001   -1.3856    0.0000 C   0  0  0  0  0  0  0  0  0  0  0  0
   -1.6001   -2.7713    0.0000 H   0  0  0  0  0  0  0  0  0  0  0  0
  1  2  1  0  0  0  0
  2  3  4  0  0  0  0
  3  4  1  0  0  0  0
  3  5  4  0  0  0  0
  5  6  1  0  0  0  0
  5  7  4  0  0  0  0
  7  8  1  0  0  0  0
  7  9  4  0  0  0  0
  9 10  1  0  0  0  0
  9 11  4  0  0  0  0
 11  2  4  0  0  0  0
 11 12  1  0  0  0  0
 12 13  4  0  0  0  0
 13 14  1  0  0  0  0
 13 15  4  0  0  0  0
 15 16  1  0  0  0  0
 15 17  4  0  0  0  0
 17 18  1  0  0  0  0
 17 19  4  0  0  0  0
 19 20  1  0  0  0  0
 19 21  4  0  0  0  0
 21 12  4  0  0  0  0
 21 22  1  0  0  0  0
M  END
> <CAS>
60233-24-1

> <NAME>
2,3',4,6-TETRACHLOROBIPHENYL

> <preferred_name>
2,3',4,6-Tetrachlorobiphenyl

> <iupac>
1,3,5-trichloro-2-(3-chlorophenyl)benzene

> <SMILES>
Clc1cc(Cl)c(-c2cc(Cl)ccc2)c(Cl)c1

> <Canonical_QSARr>
Clc1cc(Cl)c(-c2cc(Cl)ccc2)c(Cl)c1

> <InChI_Code_QSARr>
InChI=1S/C12H6Cl4/c13-8-3-1-2-7(4-8)12-10(15)5-9(14)6-11(12)16/h1-6H

> <InChI Key_QSARr>
CKUBKYSLNCKBOI-UHFFFAOYSA-N

> <Salt_Solvent>
?

> <WS Temperature>
20

> <WS Reference>
YALKOWSKY,SH & DANNENFELSER,RM (1992)

> <dsstox_substance_id>
DTXSID4074192

> <LogMolar>
-7.1547

$$$$
61402-72-0
  -INDIGO-01081615412D

 23 22  0  0  0  0  0  0  0  0999 V2000
    1.3856    0.8000    0.0000 O   0  0  0  0  0  0  0  0  0  0  0  0
    2.9613    0.5222    0.0000 C   0  0  0  0  0  0  0  0  0  0  0  0
    3.9899    1.7479    0.0000 C   0  0  0  0  0  0  0  0  0  0  0  0
    5.0182    2.9735    0.0000 C   0  0  0  0  0  0  0  0  0  0  0  0
    6.0466    4.1992    0.0000 H   0  0  0  0  0  0  0  0  0  0  0  0
    6.5939    2.6956    0.0000 H   0  0  0  0  0  0  0  0  0  0  0  0
    4.4709    4.4770    0.0000 H   0  0  0  0  0  0  0  0  0  0  0  0
    5.2154    0.7194    0.0000 H   0  0  0  0  0  0  0  0  0  0  0  0
    2.7641    2.7762    0.0000 H   0  0  0  0  0  0  0  0  0  0  0  0
    3.5086   -0.9814    0.0000 O   0  0  0  0  0  0  0  0  0  0  0  0
   -0.0001   -0.0000    0.0000 C   0  0  0  0  0  0  0  0  0  0  0  0
   -0.8000    1.3856    0.0000 C   0  0  0  0  0  0  0  0  0  0  0  0
   -0.0001    2.7713    0.0000 O   0  0  0  0  0  0  0  0  0  0  0  0
   -2.4000    1.3856    0.0000 O   0  0  0  0  0  0  0  0  0  0  0  0
   -3.2000    2.7713    0.0000 C   0  0  0  0  0  0  0  0  0  0  0  0
   -4.0001    4.1569    0.0000 H   0  0  0  0  0  0  0  0  0  0  0  0
   -4.8000    2.7713    0.0000 H   0  0  0  0  0  0  0  0  0  0  0  0
   -2.4000    4.1569    0.0000 H   0  0  0  0  0  0  0  0  0  0  0  0
    0.5473   -1.5035    0.0000 C   0  0  0  0  0  0  0  0  0  0  0  0
    1.0944   -3.0070    0.0000 H   0  0  0  0  0  0  0  0  0  0  0  0
   -0.4813   -2.7292    0.0000 H   0  0  0  0  0  0  0  0  0  0  0  0
    2.1230   -1.7813    0.0000 H   0  0  0  0  0  0  0  0  0  0  0  0
   -1.3856   -0.8000    0.0000 H   0  0  0  0  0  0  0  0  0  0  0  0
  1  2  1  0  0  0  0
  2  3  1  0  0  0  0
  3  4  1  0  0  0  0
  4  5  1  0  0  0  0
  4  6  1  0  0  0  0
  4  7  1  0  0  0  0
  3  8  1  0  0  0  0
  3  9  1  0  0  0  0
  2 10  2  0  0  0  0
  1 11  1  0  0  0  0
 11 12  1  0  0  0  0
 12 13  2  0  0  0  0
 12 14  1  0  0  0  0
 14 15  1  0  0  0  0
 15 16  1  0  0  0  0
 15 17  1  0  0  0  0
 15 18  1  0  0  0  0
 11 19  1  0  0  0  0
 19 20  1  0  0  0  0
 19 21  1  0  0  0  0
 19 22  1  0  0  0  0
 11 23  1  0  0  0  0
M  END
> <CAS>
61402-72-0

> <NAME>
Propanoic acid, 2-(1-oxopropoxy)-, methyl ester

> <preferred_name>
Propanoic acid, 2-(1-oxopropoxy)-, methyl ester

> <iupac>
C7H12O4

> <SMILES>
COC(=O)C(C)OC(=O)CC

> <Canonical_QSARr>
COC(=O)C(C)OC(=O)CC

> <InChI_Code_QSARr>
InChI=1S/C7H12O4/c1-4-6(8)11-5(2)7(9)10-3/h5H,4H2,1-3H3

> <InChI Key_QSARr>
QCHIRICIDKIMSH-UHFFFAOYSA-N

> <Salt_Solvent>
?

> <WS Temperature>
25

> <WS Reference>
BEILSTEIN

> <dsstox_substance_id>
DTXSID30485366

> <LogMolar>
-0.8622

$$$$
61713-37-9
  -INDIGO-01081615412D

 20 19  0  0  0  0  0  0  0  0999 V2000
    2.4000   -1.3856    0.0000 S   0  0  0  0  0  0  0  0  0  0  0  0
    4.0000   -1.3856    0.0000 C   0  0  0  0  0  0  0  0  0  0  0  0
    5.6000   -1.3856    0.0000 H   0  0  0  0  0  0  0  0  0  0  0  0
    4.8001   -2.7713    0.0000 H   0  0  0  0  0  0  0  0  0  0  0  0
    3.1999   -2.7713    0.0000 H   0  0  0  0  0  0  0  0  0  0  0  0
    1.6001    0.0000    0.0000 C   0  0  0  0  0  0  0  0  0  0  0  0
    2.4000    1.3856    0.0000 N   0  0  0  0  0  0  0  0  0  0  0  0
    4.0000    1.3856    0.0000 C   0  0  0  0  0  0  0  0  0  0  0  0
    4.8001    2.7713    0.0000 H   0  0  0  0  0  0  0  0  0  0  0  0
    5.6000    1.3856    0.0000 H   0  0  0  0  0  0  0  0  0  0  0  0
    3.2001    2.7713    0.0000 H   0  0  0  0  0  0  0  0  0  0  0  0
    0.0001    0.0000    0.0000 N   0  0  0  0  0  0  0  0  0  0  0  0
   -0.8000    1.3856    0.0000 C   0  0  0  0  0  0  0  0  0  0  0  0
   -1.6001    2.7713    0.0000 H   0  0  0  0  0  0  0  0  0  0  0  0
   -2.4000    1.3856    0.0000 H   0  0  0  0  0  0  0  0  0  0  0  0
   -0.0001    2.7713    0.0000 H   0  0  0  0  0  0  0  0  0  0  0  0
   -0.8000   -1.3856    0.0000 C   0  0  0  0  0  0  0  0  0  0  0  0
   -1.5999   -2.7713    0.0000 H   0  0  0  0  0  0  0  0  0  0  0  0
    0.0001   -2.7713    0.0000 H   0  0  0  0  0  0  0  0  0  0  0  0
   -2.4000   -1.3856    0.0000 H   0  0  0  0  0  0  0  0  0  0  0  0
  1  2  1  0  0  0  0
  2  3  1  0  0  0  0
  2  4  1  0  0  0  0
  2  5  1  0  0  0  0
  1  6  1  0  0  0  0
  6  7  2  0  0  0  0
  7  8  1  0  0  0  0
  8  9  1  0  0  0  0
  8 10  1  0  0  0  0
  8 11  1  0  0  0  0
  6 12  1  0  0  0  0
 12 13  1  0  0  0  0
 13 14  1  0  0  0  0
 13 15  1  0  0  0  0
 13 16  1  0  0  0  0
 12 17  1  0  0  0  0
 17 18  1  0  0  0  0
 17 19  1  0  0  0  0
 17 20  1  0  0  0  0
M  END
> <CAS>
61713-37-9

> <NAME>
Carbamimidothioic acid, trimethyl-, methyl ester

> <preferred_name>
PUBCHEM_12411431

> <iupac>
C5H12N2S

> <SMILES>
C/N=C(\SC)/N(C)C

> <Canonical_QSARr>
CN=C(SC)N(C)C

> <InChI_Code_QSARr>
InChI=1S/C5H12N2S/c1-6-5(8-4)7(2)3/h1-4H3/b6-5-

> <InChI Key_QSARr>
CQROVVJXIYLISJ-WAYWQWQTSA-N

> <Salt_Solvent>
?

> <WS Temperature>


> <WS Reference>
BEILSTEIN

> <dsstox_substance_id>
DTXSID10497023

> <LogMolar>
-0.4401

$$$$
62850-32-2
  -INDIGO-01081615412D

 36 36  0  0  0  0  0  0  0  0999 V2000
    6.9283   -4.0001    0.0000 C   0  0  0  0  0  0  0  0  0  0  0  0
    6.9283   -2.4000    0.0000 N   0  0  0  0  0  0  0  0  0  0  0  0
    5.5427   -1.6000    0.0000 C   0  0  0  0  0  0  0  0  0  0  0  0
    4.1568   -2.4000    0.0000 S   0  0  0  0  0  0  0  0  0  0  0  0
    2.7712   -1.6000    0.0000 C   0  0  0  0  0  0  0  0  0  0  0  0
    1.3856   -0.8000    0.0000 C   0  0  0  0  0  0  0  0  0  0  0  0
    0.0000   -0.0000    0.0000 C   0  0  0  0  0  0  0  0  0  0  0  0
   -1.3856    0.8000    0.0000 C   0  0  0  0  0  0  0  0  0  0  0  0
   -2.7712    1.6001    0.0000 O   0  0  0  0  0  0  0  0  0  0  0  0
   -4.1570    0.8000    0.0000 C   0  0  0  0  0  0  0  0  0  0  0  0
   -5.5426    1.6001    0.0000 C   0  0  0  0  0  0  0  0  0  0  0  0
   -5.5426    3.2000    0.0000 H   0  0  0  0  0  0  0  0  0  0  0  0
   -6.9282    0.8000    0.0000 C   0  0  0  0  0  0  0  0  0  0  0  0
   -8.3138    1.6001    0.0000 H   0  0  0  0  0  0  0  0  0  0  0  0
   -6.9282   -0.8000    0.0000 C   0  0  0  0  0  0  0  0  0  0  0  0
   -8.3138   -1.6000    0.0000 H   0  0  0  0  0  0  0  0  0  0  0  0
   -5.5426   -1.6000    0.0000 C   0  0  0  0  0  0  0  0  0  0  0  0
   -5.5426   -3.2000    0.0000 H   0  0  0  0  0  0  0  0  0  0  0  0
   -4.1570   -0.8000    0.0000 C   0  0  0  0  0  0  0  0  0  0  0  0
   -2.7712   -1.6000    0.0000 H   0  0  0  0  0  0  0  0  0  0  0  0
   -0.5857    2.1857    0.0000 H   0  0  0  0  0  0  0  0  0  0  0  0
   -2.1857   -0.5856    0.0000 H   0  0  0  0  0  0  0  0  0  0  0  0
    0.7999    1.3856    0.0000 H   0  0  0  0  0  0  0  0  0  0  0  0
   -0.8001   -1.3856    0.0000 H   0  0  0  0  0  0  0  0  0  0  0  0
    2.1858    0.5856    0.0000 H   0  0  0  0  0  0  0  0  0  0  0  0
    0.5858   -2.1857    0.0000 H   0  0  0  0  0  0  0  0  0  0  0  0
    3.5714   -0.2143    0.0000 H   0  0  0  0  0  0  0  0  0  0  0  0
    1.9714   -2.9856    0.0000 H   0  0  0  0  0  0  0  0  0  0  0  0
    5.5427   -0.0000    0.0000 O   0  0  0  0  0  0  0  0  0  0  0  0
    8.3139   -1.6000    0.0000 C   0  0  0  0  0  0  0  0  0  0  0  0
    9.6995   -0.8000    0.0000 H   0  0  0  0  0  0  0  0  0  0  0  0
    9.6995   -2.4000    0.0000 H   0  0  0  0  0  0  0  0  0  0  0  0
    8.3139   -0.0000    0.0000 H   0  0  0  0  0  0  0  0  0  0  0  0
    6.9283   -5.6000    0.0000 H   0  0  0  0  0  0  0  0  0  0  0  0
    8.3139   -4.8000    0.0000 H   0  0  0  0  0  0  0  0  0  0  0  0
    5.5427   -4.8000    0.0000 H   0  0  0  0  0  0  0  0  0  0  0  0
  1  2  1  0  0  0  0
  2  3  1  0  0  0  0
  3  4  1  0  0  0  0
  4  5  1  0  0  0  0
  5  6  1  0  0  0  0
  6  7  1  0  0  0  0
  7  8  1  0  0  0  0
  8  9  1  0  0  0  0
  9 10  1  0  0  0  0
 10 11  4  0  0  0  0
 11 12  1  0  0  0  0
 11 13  4  0  0  0  0
 13 14  1  0  0  0  0
 13 15  4  0  0  0  0
 15 16  1  0  0  0  0
 15 17  4  0  0  0  0
 17 18  1  0  0  0  0
 17 19  4  0  0  0  0
 19 10  4  0  0  0  0
 19 20  1  0  0  0  0
  8 21  1  0  0  0  0
  8 22  1  0  0  0  0
  7 23  1  0  0  0  0
  7 24  1  0  0  0  0
  6 25  1  0  0  0  0
  6 26  1  0  0  0  0
  5 27  1  0  0  0  0
  5 28  1  0  0  0  0
  3 29  2  0  0  0  0
  2 30  1  0  0  0  0
 30 31  1  0  0  0  0
 30 32  1  0  0  0  0
 30 33  1  0  0  0  0
  1 34  1  0  0  0  0
  1 35  1  0  0  0  0
  1 36  1  0  0  0  0
M  END
> <CAS>
62850-32-2

> <NAME>
FENOTHIOCARB

> <preferred_name>
Fenothiocarb

> <iupac>
S-(4-phenoxybutyl) dimethylcarbamothioate

> <SMILES>
CN(C)C(=O)SCCCCOc1ccccc1

> <Canonical_QSARr>
CN(C)C(=O)SCCCCOc1ccccc1

> <InChI_Code_QSARr>
InChI=1S/C13H19NO2S/c1-14(2)13(15)17-11-7-6-10-16-12-8-4-3-5-9-12/h3-5,8-9H,6-7,10-11H2,1-2H3

> <InChI Key_QSARr>
HMIBKHHNXANVHR-UHFFFAOYSA-N

> <Salt_Solvent>
?

> <WS Temperature>
20

> <WS Reference>
SHIU,WY ET AL. (1990)

> <dsstox_substance_id>
DTXSID5058145

> <LogMolar>
-3.9266

$$$$
63278-33-1
  -INDIGO-01081615412D

 21 21  0  0  0  0  0  0  0  0999 V2000
    1.3857    4.0000    0.0000 N   0  0  0  0  0  0  0  0  0  0  0  0
    1.3857    2.4000    0.0000 C   0  0  0  0  0  0  0  0  0  0  0  0
    1.3857    0.8000    0.0000 C   0  0  0  0  0  0  0  0  0  0  0  0
    0.0000    0.0001    0.0000 C   0  0  0  0  0  0  0  0  0  0  0  0
   -1.3857    0.8000    0.0000 C   0  0  0  0  0  0  0  0  0  0  0  0
   -1.3857    2.4000    0.0000 H   0  0  0  0  0  0  0  0  0  0  0  0
   -2.7712   -0.0001    0.0000 C   0  0  0  0  0  0  0  0  0  0  0  0
   -4.1569    0.8000    0.0000 H   0  0  0  0  0  0  0  0  0  0  0  0
   -2.7712   -1.5999    0.0000 C   0  0  0  0  0  0  0  0  0  0  0  0
   -4.1569   -2.4000    0.0000 H   0  0  0  0  0  0  0  0  0  0  0  0
   -1.3857   -2.4000    0.0000 C   0  0  0  0  0  0  0  0  0  0  0  0
   -1.3857   -4.0000    0.0000 H   0  0  0  0  0  0  0  0  0  0  0  0
    0.0000   -1.5999    0.0000 C   0  0  0  0  0  0  0  0  0  0  0  0
    1.3857   -2.4000    0.0000 H   0  0  0  0  0  0  0  0  0  0  0  0
    2.7712    0.0001    0.0000 N   0  0  0  0  0  0  0  0  0  0  0  0
    4.1569    0.8000    0.0000 O   0  0  0  0  0  0  0  0  0  0  0  0
    5.5426    0.0001    0.0000 C   0  0  0  0  0  0  0  0  0  0  0  0
    6.9281   -0.8000    0.0000 C   0  0  0  0  0  0  0  0  0  0  0  0
    8.3138   -1.5999    0.0000 N   0  0  0  0  0  0  0  0  0  0  0  0
    6.3426    1.3857    0.0000 H   0  0  0  0  0  0  0  0  0  0  0  0
    4.7426   -1.3856    0.0000 H   0  0  0  0  0  0  0  0  0  0  0  0
  1  2  3  0  0  0  0
  2  3  1  0  0  0  0
  3  4  1  0  0  0  0
  4  5  4  0  0  0  0
  5  6  1  0  0  0  0
  5  7  4  0  0  0  0
  7  8  1  0  0  0  0
  7  9  4  0  0  0  0
  9 10  1  0  0  0  0
  9 11  4  0  0  0  0
 11 12  1  0  0  0  0
 11 13  4  0  0  0  0
 13  4  4  0  0  0  0
 13 14  1  0  0  0  0
  3 15  2  0  0  0  0
 15 16  1  0  0  0  0
 16 17  1  0  0  0  0
 17 18  1  0  0  0  0
 18 19  3  0  0  0  0
 17 20  1  0  0  0  0
 17 21  1  0  0  0  0
M  END
> <CAS>
63278-33-1

> <NAME>
Benzeneacetonitrile, alpha-((cyanomethoxy)imino)

> <preferred_name>
.alpha.-[(Cyanomethoxy)imino]benzeneacetonitrile

> <iupac>


> <SMILES>
N#CC(=NOCC#N)c1ccccc1

> <Canonical_QSARr>
N#CC(=NOCC#N)c1ccccc1

> <InChI_Code_QSARr>
InChI=1S/C10H7N3O/c11-6-7-14-13-10(8-12)9-4-2-1-3-5-9/h1-5H,7H2/b13-10+

> <InChI Key_QSARr>
PYKLUAIDKVVEOS-JLHYYAGUSA-N

> <Salt_Solvent>
?

> <WS Temperature>
20

> <WS Reference>
TOMLIN,C (2003)

> <dsstox_substance_id>
DTXSID8069806

> <LogMolar>
-3.2899

$$$$
63837-33-2
  -INDIGO-01081615412D

 42 44  0  0  0  0  0  0  0  0999 V2000
    2.4620    0.8000    0.0000 O   0  0  0  0  0  0  0  0  0  0  0  0
    0.9403    1.2945    0.0000 C   0  0  0  0  0  0  0  0  0  0  0  0
    1.5911    2.7561    0.0000 H   0  0  0  0  0  0  0  0  0  0  0  0
   -0.4453    2.0944    0.0000 H   0  0  0  0  0  0  0  0  0  0  0  0
    0.0000   -0.0000    0.0000 C   0  0  0  0  0  0  0  0  0  0  0  0
   -1.1889   -1.0706    0.0000 C   0  0  0  0  0  0  0  0  0  0  0  0
   -2.3782   -2.1412    0.0000 O   0  0  0  0  0  0  0  0  0  0  0  0
   -3.8999   -1.6468    0.0000 C   0  0  0  0  0  0  0  0  0  0  0  0
   -4.2323   -0.0818    0.0000 C   0  0  0  0  0  0  0  0  0  0  0  0
   -3.0434    0.9888    0.0000 H   0  0  0  0  0  0  0  0  0  0  0  0
   -5.7540    0.4127    0.0000 C   0  0  0  0  0  0  0  0  0  0  0  0
   -6.0867    1.9777    0.0000 H   0  0  0  0  0  0  0  0  0  0  0  0
   -6.9433   -0.6580    0.0000 C   0  0  0  0  0  0  0  0  0  0  0  0
   -8.4650   -0.1635    0.0000 O   0  0  0  0  0  0  0  0  0  0  0  0
  -10.0299   -0.4961    0.0000 C   0  0  0  0  0  0  0  0  0  0  0  0
  -11.1005    0.6928    0.0000 C   0  0  0  0  0  0  0  0  0  0  0  0
  -10.6059    2.2146    0.0000 H   0  0  0  0  0  0  0  0  0  0  0  0
  -12.6654    0.3602    0.0000 C   0  0  0  0  0  0  0  0  0  0  0  0
  -13.7361    1.5492    0.0000 H   0  0  0  0  0  0  0  0  0  0  0  0
  -13.1600   -1.1615    0.0000 C   0  0  0  0  0  0  0  0  0  0  0  0
  -14.7250   -1.4942    0.0000 H   0  0  0  0  0  0  0  0  0  0  0  0
  -12.0894   -2.3505    0.0000 C   0  0  0  0  0  0  0  0  0  0  0  0
  -12.5837   -3.8722    0.0000 H   0  0  0  0  0  0  0  0  0  0  0  0
  -10.5241   -2.0179    0.0000 C   0  0  0  0  0  0  0  0  0  0  0  0
   -9.4538   -3.2069    0.0000 H   0  0  0  0  0  0  0  0  0  0  0  0
   -6.6105   -2.2230    0.0000 C   0  0  0  0  0  0  0  0  0  0  0  0
   -7.7994   -3.2936    0.0000 H   0  0  0  0  0  0  0  0  0  0  0  0
   -5.0888   -2.7174    0.0000 C   0  0  0  0  0  0  0  0  0  0  0  0
   -4.7561   -4.2824    0.0000 H   0  0  0  0  0  0  0  0  0  0  0  0
   -2.2596    0.1184    0.0000 H   0  0  0  0  0  0  0  0  0  0  0  0
   -0.1183   -2.2596    0.0000 H   0  0  0  0  0  0  0  0  0  0  0  0
   -1.1889    1.0707    0.0000 H   0  0  0  0  0  0  0  0  0  0  0  0
    0.9403   -1.2944    0.0000 O   0  0  0  0  0  0  0  0  0  0  0  0
    2.4620   -0.8000    0.0000 C   0  0  0  0  0  0  0  0  0  0  0  0
    4.0534   -0.6327    0.0000 C   0  0  0  0  0  0  0  0  0  0  0  0
    5.6445   -0.4655    0.0000 C   0  0  0  0  0  0  0  0  0  0  0  0
    7.2359   -0.2983    0.0000 H   0  0  0  0  0  0  0  0  0  0  0  0
    6.5851   -1.7599    0.0000 H   0  0  0  0  0  0  0  0  0  0  0  0
    6.2956    0.9961    0.0000 H   0  0  0  0  0  0  0  0  0  0  0  0
    4.2206   -2.2240    0.0000 H   0  0  0  0  0  0  0  0  0  0  0  0
    3.8862    0.9585    0.0000 H   0  0  0  0  0  0  0  0  0  0  0  0
    2.7948   -2.3650    0.0000 H   0  0  0  0  0  0  0  0  0  0  0  0
  1  2  1  0  0  0  0
  2  3  1  0  0  0  0
  2  4  1  0  0  0  0
  2  5  1  0  0  0  0
  5  6  1  0  0  0  0
  6  7  1  0  0  0  0
  7  8  1  0  0  0  0
  8  9  4  0  0  0  0
  9 10  1  0  0  0  0
  9 11  4  0  0  0  0
 11 12  1  0  0  0  0
 11 13  4  0  0  0  0
 13 14  1  0  0  0  0
 14 15  1  0  0  0  0
 15 16  4  0  0  0  0
 16 17  1  0  0  0  0
 16 18  4  0  0  0  0
 18 19  1  0  0  0  0
 18 20  4  0  0  0  0
 20 21  1  0  0  0  0
 20 22  4  0  0  0  0
 22 23  1  0  0  0  0
 22 24  4  0  0  0  0
 24 15  4  0  0  0  0
 24 25  1  0  0  0  0
 13 26  4  0  0  0  0
 26 27  1  0  0  0  0
 26 28  4  0  0  0  0
 28  8  4  0  0  0  0
 28 29  1  0  0  0  0
  6 30  1  0  0  0  0
  6 31  1  0  0  0  0
  5 32  1  0  0  0  0
  5 33  1  0  0  0  0
 33 34  1  0  0  0  0
 34  1  1  0  0  0  0
 34 35  1  0  0  0  0
 35 36  1  0  0  0  0
 36 37  1  0  0  0  0
 36 38  1  0  0  0  0
 36 39  1  0  0  0  0
 35 40  1  0  0  0  0
 35 41  1  0  0  0  0
 34 42  1  0  0  0  0
M  END
> <CAS>
63837-33-2

> <NAME>
DIOFENOLAN

> <preferred_name>
Diofenolan

> <iupac>
2-ethyl-4-[(4-phenoxyphenoxy)methyl]-1,3-dioxolane

> <SMILES>
CCC1OC(CO1)COc1ccc(cc1)Oc1ccccc1

> <Canonical_QSARr>
CCC1OC(CO1)COc1ccc(cc1)Oc1ccccc1

> <InChI_Code_QSARr>
InChI=1S/C18H20O4/c1-2-18-20-13-17(22-18)12-19-14-8-10-16(11-9-14)21-15-6-4-3-5-7-15/h3-11,17-18H,2,12-13H2,1H3

> <InChI Key_QSARr>
ZDOOQPFIGYHZFV-UHFFFAOYSA-N

> <Salt_Solvent>
?

> <WS Temperature>
25

> <WS Reference>
TOMLIN,C (1994)

> <dsstox_substance_id>
DTXSID2041884

> <LogMolar>
-4.7874

$$$$
64098-82-4
  -INDIGO-01081615412D

 28 28  0  0  0  0  0  0  0  0999 V2000
   -8.8001    1.3857    0.0000 F   0  0  0  0  0  0  0  0  0  0  0  0
   -7.9999   -0.0000    0.0000 C   0  0  0  0  0  0  0  0  0  0  0  0
   -8.8001   -1.3857    0.0000 C   0  0  0  0  0  0  0  0  0  0  0  0
  -10.4000   -1.3857    0.0000 O   0  0  0  0  0  0  0  0  0  0  0  0
   -7.9999   -2.7713    0.0000 N   0  0  0  0  0  0  0  0  0  0  0  0
   -8.8001   -4.1569    0.0000 H   0  0  0  0  0  0  0  0  0  0  0  0
   -6.4000   -2.7713    0.0000 C   0  0  0  0  0  0  0  0  0  0  0  0
   -5.6001   -4.1569    0.0000 O   0  0  0  0  0  0  0  0  0  0  0  0
   -5.6001   -1.3857    0.0000 N   0  0  0  0  0  0  0  0  0  0  0  0
   -3.9999   -1.3857    0.0000 C   0  0  0  0  0  0  0  0  0  0  0  0
   -3.2000   -0.0000    0.0000 N   0  0  0  0  0  0  0  0  0  0  0  0
   -1.6001   -0.0000    0.0000 C   0  0  0  0  0  0  0  0  0  0  0  0
    0.0001   -0.0000    0.0000 C   0  0  0  0  0  0  0  0  0  0  0  0
    1.6000   -0.0000    0.0000 C   0  0  0  0  0  0  0  0  0  0  0  0
    3.2001   -0.0000    0.0000 C   0  0  0  0  0  0  0  0  0  0  0  0
    4.8000   -0.0000    0.0000 H   0  0  0  0  0  0  0  0  0  0  0  0
    4.0000    1.3857    0.0000 H   0  0  0  0  0  0  0  0  0  0  0  0
    4.0000   -1.3857    0.0000 H   0  0  0  0  0  0  0  0  0  0  0  0
    1.6000    1.6000    0.0000 H   0  0  0  0  0  0  0  0  0  0  0  0
    1.6000   -1.6000    0.0000 H   0  0  0  0  0  0  0  0  0  0  0  0
    0.0001    1.6000    0.0000 H   0  0  0  0  0  0  0  0  0  0  0  0
    0.0001   -1.6000    0.0000 H   0  0  0  0  0  0  0  0  0  0  0  0
   -1.6001    1.6000    0.0000 H   0  0  0  0  0  0  0  0  0  0  0  0
   -1.6001   -1.6000    0.0000 H   0  0  0  0  0  0  0  0  0  0  0  0
   -3.9999    1.3857    0.0000 H   0  0  0  0  0  0  0  0  0  0  0  0
   -3.2000   -2.7713    0.0000 O   0  0  0  0  0  0  0  0  0  0  0  0
   -6.4000   -0.0000    0.0000 C   0  0  0  0  0  0  0  0  0  0  0  0
   -5.6001    1.3857    0.0000 H   0  0  0  0  0  0  0  0  0  0  0  0
  1  2  1  0  0  0  0
  2  3  1  0  0  0  0
  3  4  2  0  0  0  0
  3  5  1  0  0  0  0
  5  6  1  0  0  0  0
  5  7  1  0  0  0  0
  7  8  2  0  0  0  0
  7  9  1  0  0  0  0
  9 10  1  0  0  0  0
 10 11  1  0  0  0  0
 11 12  1  0  0  0  0
 12 13  1  0  0  0  0
 13 14  1  0  0  0  0
 14 15  1  0  0  0  0
 15 16  1  0  0  0  0
 15 17  1  0  0  0  0
 15 18  1  0  0  0  0
 14 19  1  0  0  0  0
 14 20  1  0  0  0  0
 13 21  1  0  0  0  0
 13 22  1  0  0  0  0
 12 23  1  0  0  0  0
 12 24  1  0  0  0  0
 11 25  1  0  0  0  0
 10 26  2  0  0  0  0
  9 27  1  0  0  0  0
 27  2  2  0  0  0  0
 27 28  1  0  0  0  0
M  END
> <CAS>
64098-82-4

> <NAME>
1(2H)-PYRIMIDINECARBOXAMIDE, N-BUTYL-5-FLUORO-3,

> <preferred_name>
1(2H)-Pyrimidinecarboxamide, N-butyl-5-fluoro-3,4-dihydro-2,4-dioxo-

> <iupac>
N-butyl-5-fluoro-2,4-dioxopyrimidine-1-carboxamide

> <SMILES>
CCCCNC(=O)N1C=C(F)C(=O)NC1=O

> <Canonical_QSARr>
CCCCNC(=O)N1C=C(F)C(=O)NC1=O

> <InChI_Code_QSARr>
InChI=1S/C9H12FN3O3/c1-2-3-4-11-8(15)13-5-6(10)7(14)12-9(13)16/h5H,2-4H2,1H3,(H,11,15)(H,12,14,16)

> <InChI Key_QSARr>
PVSNDBKXSKXPHM-UHFFFAOYSA-N

> <Salt_Solvent>
?

> <WS Temperature>
22

> <WS Reference>
BUUR,A & BUNDGAARD,H (1985)

> <dsstox_substance_id>
DTXSID30214294

> <LogMolar>
-2.4464

$$$$
64649-43-0
  -INDIGO-01081615412D

 22 22  0  0  0  0  0  0  0  0999 V2000
    2.3999   -1.3856    0.0000 O   0  0  0  0  0  0  0  0  0  0  0  0
    3.9999   -1.3856    0.0000 C   0  0  0  0  0  0  0  0  0  0  0  0
    5.6000   -1.3856    0.0000 C   0  0  0  0  0  0  0  0  0  0  0  0
    6.4000   -2.7713    0.0000 N   0  0  0  0  0  0  0  0  0  0  0  0
    8.0000   -2.7713    0.0000 H   0  0  0  0  0  0  0  0  0  0  0  0
    5.6000   -4.1569    0.0000 H   0  0  0  0  0  0  0  0  0  0  0  0
    6.4000    0.0000    0.0000 O   0  0  0  0  0  0  0  0  0  0  0  0
    3.9999   -2.9857    0.0000 H   0  0  0  0  0  0  0  0  0  0  0  0
    3.9999    0.2144    0.0000 H   0  0  0  0  0  0  0  0  0  0  0  0
    1.5999    0.0000    0.0000 C   0  0  0  0  0  0  0  0  0  0  0  0
    0.0001    0.0000    0.0000 C   0  0  0  0  0  0  0  0  0  0  0  0
   -0.7999    1.3856    0.0000 C   0  0  0  0  0  0  0  0  0  0  0  0
    0.0001    2.7713    0.0000 H   0  0  0  0  0  0  0  0  0  0  0  0
   -2.4000    1.3856    0.0000 C   0  0  0  0  0  0  0  0  0  0  0  0
   -3.2000    2.7713    0.0000 H   0  0  0  0  0  0  0  0  0  0  0  0
   -3.2000    0.0000    0.0000 C   0  0  0  0  0  0  0  0  0  0  0  0
   -4.8000    0.0000    0.0000 H   0  0  0  0  0  0  0  0  0  0  0  0
   -2.4000   -1.3856    0.0000 C   0  0  0  0  0  0  0  0  0  0  0  0
   -3.2000   -2.7713    0.0000 H   0  0  0  0  0  0  0  0  0  0  0  0
   -0.7999   -1.3856    0.0000 C   0  0  0  0  0  0  0  0  0  0  0  0
    0.0001   -2.7713    0.0000 H   0  0  0  0  0  0  0  0  0  0  0  0
    2.3999    1.3856    0.0000 O   0  0  0  0  0  0  0  0  0  0  0  0
  1  2  1  0  0  0  0
  2  3  1  0  0  0  0
  3  4  1  0  0  0  0
  4  5  1  0  0  0  0
  4  6  1  0  0  0  0
  3  7  2  0  0  0  0
  2  8  1  0  0  0  0
  2  9  1  0  0  0  0
  1 10  1  0  0  0  0
 10 11  1  0  0  0  0
 11 12  4  0  0  0  0
 12 13  1  0  0  0  0
 12 14  4  0  0  0  0
 14 15  1  0  0  0  0
 14 16  4  0  0  0  0
 16 17  1  0  0  0  0
 16 18  4  0  0  0  0
 18 19  1  0  0  0  0
 18 20  4  0  0  0  0
 20 11  4  0  0  0  0
 20 21  1  0  0  0  0
 10 22  2  0  0  0  0
M  END
> <CAS>
64649-43-0

> <NAME>
ACETAMIDE, 2-(BENZOYLOXY)-

> <preferred_name>
Acetamide, 2-(benzoyloxy)-

> <iupac>
C9H9NO3

> <SMILES>
NC(=O)COC(=O)c1ccccc1

> <Canonical_QSARr>
NC(=O)COC(=O)c1ccccc1

> <InChI_Code_QSARr>
InChI=1S/C9H9NO3/c10-8(11)6-13-9(12)7-4-2-1-3-5-7/h1-5H,6H2,(H2,10,11)

> <InChI Key_QSARr>
HBEWADIWKZVJSD-UHFFFAOYSA-N

> <Salt_Solvent>
?

> <WS Temperature>
22

> <WS Reference>
NIELSEN,NM & BUNDGAARD,H (1988)

> <dsstox_substance_id>
DTXSID30409148

> <LogMolar>
-1.6405

$$$$
64991-30-6
  -INDIGO-01081615412D

 19 18  0  0  0  0  0  0  0  0999 V2000
    2.4000   -1.3856    0.0000 O   0  0  0  0  0  0  0  0  0  0  0  0
    0.7999   -1.3856    0.0000 C   0  0  0  0  0  0  0  0  0  0  0  0
    0.0001   -0.0000    0.0000 C   0  0  0  0  0  0  0  0  0  0  0  0
    1.3856    0.8000    0.0000 C   0  0  0  0  0  0  0  0  0  0  0  0
    2.7712    1.6000    0.0000 H   0  0  0  0  0  0  0  0  0  0  0  0
    2.7712   -0.0000    0.0000 H   0  0  0  0  0  0  0  0  0  0  0  0
    1.3856    2.4000    0.0000 H   0  0  0  0  0  0  0  0  0  0  0  0
   -1.3856   -0.8000    0.0000 N   0  0  0  0  0  0  0  0  0  0  0  0
   -2.7712   -0.0000    0.0000 C   0  0  0  0  0  0  0  0  0  0  0  0
   -4.1569    0.8000    0.0000 C   0  0  0  0  0  0  0  0  0  0  0  0
   -5.5426    1.6000    0.0000 H   0  0  0  0  0  0  0  0  0  0  0  0
   -5.5426   -0.0000    0.0000 H   0  0  0  0  0  0  0  0  0  0  0  0
   -4.1569    2.4000    0.0000 H   0  0  0  0  0  0  0  0  0  0  0  0
   -3.5713   -1.3856    0.0000 H   0  0  0  0  0  0  0  0  0  0  0  0
   -1.9712    1.3856    0.0000 H   0  0  0  0  0  0  0  0  0  0  0  0
   -1.3856   -2.4000    0.0000 H   0  0  0  0  0  0  0  0  0  0  0  0
   -0.8000    1.3856    0.0000 H   0  0  0  0  0  0  0  0  0  0  0  0
    0.0001   -2.7713    0.0000 O   0  0  0  0  0  0  0  0  0  0  0  0
    3.2000   -2.7713    0.0000 H   0  0  0  0  0  0  0  0  0  0  0  0
  1  2  1  0  0  0  0
  2  3  1  0  0  0  0
  3  4  1  0  0  0  0
  4  5  1  0  0  0  0
  4  6  1  0  0  0  0
  4  7  1  0  0  0  0
  3  8  1  0  0  0  0
  8  9  1  0  0  0  0
  9 10  1  0  0  0  0
 10 11  1  0  0  0  0
 10 12  1  0  0  0  0
 10 13  1  0  0  0  0
  9 14  1  0  0  0  0
  9 15  1  0  0  0  0
  8 16  1  0  0  0  0
  3 17  1  0  0  0  0
  2 18  2  0  0  0  0
  1 19  1  0  0  0  0
M  END
> <CAS>
64991-30-6

> <NAME>
DL-Alanine, N-ethyl-

> <preferred_name>
ethylalanine

> <iupac>
C5H11NO2

> <SMILES>
CCN[C@@H](C)C(O)=O

> <Canonical_QSARr>
CCNC(C)C(O)=O

> <InChI_Code_QSARr>
InChI=1S/C5H11NO2/c1-3-6-4(2)5(7)8/h4,6H,3H2,1-2H3,(H,7,8)

> <InChI Key_QSARr>
DATPFTPVGIHCCM-UHFFFAOYSA-N

> <Salt_Solvent>
?

> <WS Temperature>
25

> <WS Reference>
BEILSTEIN

> <dsstox_substance_id>
DTXSID70475625

> <LogMolar>
0.6522

$$$$
65882-61-3
  -INDIGO-01081615412D

 15 16  0  0  0  0  0  0  0  0999 V2000
    1.3856    4.0000    0.0000 S   0  0  0  0  0  0  0  0  0  0  0  0
    1.3856    2.4000    0.0000 C   0  0  0  0  0  0  0  0  0  0  0  0
    0.0001    1.6000    0.0000 C   0  0  0  0  0  0  0  0  0  0  0  0
    0.0001    0.0000    0.0000 C   0  0  0  0  0  0  0  0  0  0  0  0
   -1.3856   -0.8000    0.0000 N   0  0  0  1  0  0  0  0  0  0  0  0
   -2.7712    0.0000    0.0000 C   0  0  0  0  0  0  0  0  0  0  0  0
   -2.7712    1.6000    0.0000 C   0  0  0  0  0  0  0  0  0  0  0  0
   -1.3856    2.4000    0.0000 N   0  0  0  1  0  0  0  0  0  0  0  0
   -4.1569    2.4000    0.0000 H   0  0  0  0  0  0  0  0  0  0  0  0
   -4.1569   -0.8000    0.0000 H   0  0  0  0  0  0  0  0  0  0  0  0
    1.3856   -0.8000    0.0000 N   0  0  0  0  0  0  0  0  0  0  0  0
    1.3856   -2.4000    0.0000 H   0  0  0  0  0  0  0  0  0  0  0  0
    2.7713    0.0000    0.0000 C   0  0  0  0  0  0  0  0  0  0  0  0
    4.1569   -0.8000    0.0000 H   0  0  0  0  0  0  0  0  0  0  0  0
    2.7713    1.6000    0.0000 N   0  0  0  0  0  0  0  0  0  0  0  0
  1  2  2  0  0  0  0
  2  3  1  0  0  0  0
  3  4  4  0  0  0  0
  4  5  4  0  0  0  0
  5  6  4  0  0  0  0
  6  7  4  0  0  0  0
  7  8  4  0  0  0  0
  8  3  4  0  0  0  0
  7  9  1  0  0  0  0
  6 10  1  0  0  0  0
  4 11  1  0  0  0  0
 11 12  1  0  0  0  0
 11 13  1  0  0  0  0
 13 14  1  0  0  0  0
 13 15  2  0  0  0  0
 15  2  1  0  0  0  0
M  END
> <CAS>
65882-61-3

> <NAME>
4(1H)-Pteridinethione

> <preferred_name>
PUBCHEM_23422242

> <iupac>
C6H4N4S

> <SMILES>
S=C1N=CNc2[n]cc[n]c21

> <Canonical_QSARr>
S=C1N=CNc2[n]cc[n]c21

> <InChI_Code_QSARr>
InChI=1S/C6H4N4S/c11-6-4-5(9-3-10-6)8-2-1-7-4/h1-3H,(H,8,9,10,11)

> <InChI Key_QSARr>
GTLUQRDIJWHQGF-UHFFFAOYSA-N

> <Salt_Solvent>
?

> <WS Temperature>
20

> <WS Reference>
BEILSTEIN

> <dsstox_substance_id>
DTXSID30633805

> <LogMolar>
-2.6471

$$$$
66246-88-6
  -INDIGO-01081615412D

 33 34  0  0  0  0  0  0  0  0999 V2000
    2.4514    2.0570    0.0000 N   0  0  0  1  0  0  0  0  0  0  0  0
    1.2257    1.0285    0.0000 C   0  0  0  0  0  0  0  0  0  0  0  0
    0.0001   -0.0000    0.0000 C   0  0  0  0  0  0  0  0  0  0  0  0
    0.8000   -1.3856    0.0000 C   0  0  0  0  0  0  0  0  0  0  0  0
    0.0001   -2.7713    0.0000 C   0  0  0  0  0  0  0  0  0  0  0  0
   -1.5999   -2.7713    0.0000 H   0  0  0  0  0  0  0  0  0  0  0  0
    0.8000   -4.1568    0.0000 C   0  0  0  0  0  0  0  0  0  0  0  0
    0.0001   -5.5426    0.0000 H   0  0  0  0  0  0  0  0  0  0  0  0
    2.4000   -4.1568    0.0000 C   0  0  0  0  0  0  0  0  0  0  0  0
    3.2000   -5.5426    0.0000 Cl  0  0  0  0  0  0  0  0  0  0  0  0
    3.2000   -2.7713    0.0000 C   0  0  0  0  0  0  0  0  0  0  0  0
    4.8000   -2.7713    0.0000 H   0  0  0  0  0  0  0  0  0  0  0  0
    2.4000   -1.3856    0.0000 C   0  0  0  0  0  0  0  0  0  0  0  0
    3.2000   -0.0000    0.0000 Cl  0  0  0  0  0  0  0  0  0  0  0  0
   -1.3857    0.8000    0.0000 C   0  0  0  0  0  0  0  0  0  0  0  0
   -2.7713    1.6000    0.0000 C   0  0  0  0  0  0  0  0  0  0  0  0
   -4.1570    2.3999    0.0000 C   0  0  0  0  0  0  0  0  0  0  0  0
   -5.5426    3.1999    0.0000 H   0  0  0  0  0  0  0  0  0  0  0  0
   -5.5426    1.6000    0.0000 H   0  0  0  0  0  0  0  0  0  0  0  0
   -4.1570    4.0001    0.0000 H   0  0  0  0  0  0  0  0  0  0  0  0
   -3.5713    0.2144    0.0000 H   0  0  0  0  0  0  0  0  0  0  0  0
   -1.9713    2.9857    0.0000 H   0  0  0  0  0  0  0  0  0  0  0  0
   -2.1856   -0.5856    0.0000 H   0  0  0  0  0  0  0  0  0  0  0  0
   -0.5856    2.1857    0.0000 H   0  0  0  0  0  0  0  0  0  0  0  0
   -1.2256   -1.0285    0.0000 H   0  0  0  0  0  0  0  0  0  0  0  0
    0.6785    2.5319    0.0000 H   0  0  0  0  0  0  0  0  0  0  0  0
    2.2541   -0.1972    0.0000 H   0  0  0  0  0  0  0  0  0  0  0  0
    2.3398    3.6531    0.0000 C   0  0  0  0  0  0  0  0  0  0  0  0
    0.9829    4.5009    0.0000 H   0  0  0  0  0  0  0  0  0  0  0  0
    3.8232    4.2525    0.0000 N   0  0  0  1  0  0  0  0  0  0  0  0
    4.8516    3.0267    0.0000 C   0  0  0  0  0  0  0  0  0  0  0  0
    6.4478    3.1383    0.0000 H   0  0  0  0  0  0  0  0  0  0  0  0
    4.0038    1.6698    0.0000 N   0  0  0  1  0  0  0  0  0  0  0  0
  1  2  1  0  0  0  0
  2  3  1  0  0  0  0
  3  4  1  0  0  0  0
  4  5  4  0  0  0  0
  5  6  1  0  0  0  0
  5  7  4  0  0  0  0
  7  8  1  0  0  0  0
  7  9  4  0  0  0  0
  9 10  1  0  0  0  0
  9 11  4  0  0  0  0
 11 12  1  0  0  0  0
 11 13  4  0  0  0  0
 13  4  4  0  0  0  0
 13 14  1  0  0  0  0
  3 15  1  0  0  0  0
 15 16  1  0  0  0  0
 16 17  1  0  0  0  0
 17 18  1  0  0  0  0
 17 19  1  0  0  0  0
 17 20  1  0  0  0  0
 16 21  1  0  0  0  0
 16 22  1  0  0  0  0
 15 23  1  0  0  0  0
 15 24  1  0  0  0  0
  3 25  1  0  0  0  0
  2 26  1  0  0  0  0
  2 27  1  0  0  0  0
  1 28  4  0  0  0  0
 28 29  1  0  0  0  0
 28 30  4  0  0  0  0
 30 31  4  0  0  0  0
 31 32  1  0  0  0  0
 31 33  4  0  0  0  0
 33  1  4  0  0  0  0
M  END
> <CAS>
66246-88-6

> <NAME>
Penconazole

> <preferred_name>
Penconazole

> <iupac>
1-[2-(2,4-dichlorophenyl)pentyl]-1H-1,2,4-triazole

> <SMILES>
CCCC(C[n]1c[n]c[n]1)c1ccc(Cl)cc1Cl

> <Canonical_QSARr>
CCCC(C[n]1c[n]c[n]1)c1ccc(Cl)cc1Cl

> <InChI_Code_QSARr>
InChI=1S/C13H15Cl2N3/c1-2-3-10(7-18-9-16-8-17-18)12-5-4-11(14)6-13(12)15/h4-6,8-10H,2-3,7H2,1H3

> <InChI Key_QSARr>
WKBPZYKAUNRMKP-UHFFFAOYSA-N

> <Salt_Solvent>
?

> <WS Temperature>
20

> <WS Reference>
TOMLIN,C (1997)

> <dsstox_substance_id>
DTXSID8042260

> <LogMolar>
-3.5903

$$$$
66794-60-3
  -INDIGO-01081615412D

 23 24  0  0  0  0  0  0  0  0999 V2000
    1.3857   -4.0000    0.0000 Cl  0  0  0  0  0  0  0  0  0  0  0  0
    1.3857   -2.4000    0.0000 C   0  0  0  0  0  0  0  0  0  0  0  0
    2.7712   -1.6000    0.0000 C   0  0  0  0  0  0  0  0  0  0  0  0
    4.1569   -2.4000    0.0000 Cl  0  0  0  0  0  0  0  0  0  0  0  0
    2.7712    0.0000    0.0000 C   0  0  0  0  0  0  0  0  0  0  0  0
    4.1569    0.8001    0.0000 H   0  0  0  0  0  0  0  0  0  0  0  0
    1.3857    0.8001    0.0000 C   0  0  0  0  0  0  0  0  0  0  0  0
    1.3857    2.4000    0.0000 H   0  0  0  0  0  0  0  0  0  0  0  0
    0.0000    0.0000    0.0000 C   0  0  0  0  0  0  0  0  0  0  0  0
   -1.3857    0.8001    0.0000 O   0  0  0  0  0  0  0  0  0  0  0  0
   -2.9857    0.8001    0.0000 C   0  0  0  0  0  0  0  0  0  0  0  0
   -3.7857    2.1856    0.0000 C   0  0  0  0  0  0  0  0  0  0  0  0
   -2.9857    3.5713    0.0000 H   0  0  0  0  0  0  0  0  0  0  0  0
   -5.3856    2.1856    0.0000 C   0  0  0  0  0  0  0  0  0  0  0  0
   -6.1856    3.5713    0.0000 H   0  0  0  0  0  0  0  0  0  0  0  0
   -6.1856    0.8001    0.0000 C   0  0  0  0  0  0  0  0  0  0  0  0
   -7.7856    0.8001    0.0000 H   0  0  0  0  0  0  0  0  0  0  0  0
   -5.3856   -0.5856    0.0000 C   0  0  0  0  0  0  0  0  0  0  0  0
   -6.1856   -1.9713    0.0000 Cl  0  0  0  0  0  0  0  0  0  0  0  0
   -3.7857   -0.5856    0.0000 C   0  0  0  0  0  0  0  0  0  0  0  0
   -2.9857   -1.9713    0.0000 H   0  0  0  0  0  0  0  0  0  0  0  0
    0.0000   -1.6000    0.0000 C   0  0  0  0  0  0  0  0  0  0  0  0
   -1.3857   -2.4000    0.0000 H   0  0  0  0  0  0  0  0  0  0  0  0
  1  2  1  0  0  0  0
  2  3  4  0  0  0  0
  3  4  1  0  0  0  0
  3  5  4  0  0  0  0
  5  6  1  0  0  0  0
  5  7  4  0  0  0  0
  7  8  1  0  0  0  0
  7  9  4  0  0  0  0
  9 10  1  0  0  0  0
 10 11  1  0  0  0  0
 11 12  4  0  0  0  0
 12 13  1  0  0  0  0
 12 14  4  0  0  0  0
 14 15  1  0  0  0  0
 14 16  4  0  0  0  0
 16 17  1  0  0  0  0
 16 18  4  0  0  0  0
 18 19  1  0  0  0  0
 18 20  4  0  0  0  0
 20 11  4  0  0  0  0
 20 21  1  0  0  0  0
  9 22  4  0  0  0  0
 22  2  4  0  0  0  0
 22 23  1  0  0  0  0
M  END
> <CAS>
66794-60-3

> <NAME>
3,3',4-Trichlorodiphenyl ether

> <preferred_name>
3,3',4-Trichlorodiphenyl ether

> <iupac>
1,2-dichloro-4-(3-chlorophenoxy)benzene

> <SMILES>
Clc1cc(ccc1)Oc1cc(Cl)c(Cl)cc1

> <Canonical_QSARr>
Clc1cc(ccc1)Oc1cc(Cl)c(Cl)cc1

> <InChI_Code_QSARr>
InChI=1S/C12H7Cl3O/c13-8-2-1-3-9(6-8)16-10-4-5-11(14)12(15)7-10/h1-7H

> <InChI Key_QSARr>
BUKLLCIUMZELOH-UHFFFAOYSA-N

> <Salt_Solvent>
?

> <WS Temperature>
25

> <WS Reference>
KURZ,J & BALLSCHMITER,K (1999)

> <dsstox_substance_id>
DTXSID30216915

> <LogMolar>
-5.437

$$$$
66952-49-6
  -INDIGO-01081615412D

 27 27  0  0  0  0  0  0  0  0999 V2000
    8.3138    1.6000    0.0000 C   0  0  0  0  0  0  0  0  0  0  0  0
    6.9283    2.4000    0.0000 N   0  0  0  0  0  0  0  0  0  0  0  0
    5.5426    1.6000    0.0000 C   0  0  0  0  0  0  0  0  0  0  0  0
    4.1569    2.4000    0.0000 S   0  0  0  0  0  0  0  0  0  0  0  0
    2.7712    1.6000    0.0000 C   0  0  0  0  0  0  0  0  0  0  0  0
    1.3857    2.4000    0.0000 C   0  0  0  0  0  0  0  0  0  0  0  0
    1.3857    4.0000    0.0000 H   0  0  0  0  0  0  0  0  0  0  0  0
    0.0000    1.6000    0.0000 C   0  0  0  0  0  0  0  0  0  0  0  0
   -1.3857    2.4000    0.0000 H   0  0  0  0  0  0  0  0  0  0  0  0
    0.0000    0.0000    0.0000 C   0  0  0  0  0  0  0  0  0  0  0  0
   -1.3857   -0.8000    0.0000 O   0  0  0  0  0  0  0  0  0  0  0  0
   -2.7714    0.0000    0.0000 S   0  0  0  0  0  0  0  0  0  0  0  0
   -3.5712   -1.3856    0.0000 O   0  0  0  0  0  0  0  0  0  0  0  0
   -1.9713    1.3856    0.0000 O   0  0  0  0  0  0  0  0  0  0  0  0
   -4.1569    0.8000    0.0000 C   0  0  0  0  0  0  0  0  0  0  0  0
   -5.5426    1.6000    0.0000 H   0  0  0  0  0  0  0  0  0  0  0  0
   -5.5426    0.0000    0.0000 H   0  0  0  0  0  0  0  0  0  0  0  0
   -4.1569    2.4000    0.0000 H   0  0  0  0  0  0  0  0  0  0  0  0
    1.3857   -0.8000    0.0000 C   0  0  0  0  0  0  0  0  0  0  0  0
    1.3857   -2.4000    0.0000 H   0  0  0  0  0  0  0  0  0  0  0  0
    2.7712    0.0000    0.0000 C   0  0  0  0  0  0  0  0  0  0  0  0
    4.1569   -0.8000    0.0000 H   0  0  0  0  0  0  0  0  0  0  0  0
    5.5426    0.0000    0.0000 O   0  0  0  0  0  0  0  0  0  0  0  0
    6.9283   -0.8000    0.0000 H   0  0  0  0  0  0  0  0  0  0  0  0
    9.6995    2.4000    0.0000 H   0  0  0  0  0  0  0  0  0  0  0  0
    9.6995    0.8000    0.0000 H   0  0  0  0  0  0  0  0  0  0  0  0
    8.3138    3.2000    0.0000 H   0  0  0  0  0  0  0  0  0  0  0  0
  1  2  1  0  0  0  0
  2  3  2  0  0  0  0
  3  4  1  0  0  0  0
  4  5  1  0  0  0  0
  5  6  4  0  0  0  0
  6  7  1  0  0  0  0
  6  8  4  0  0  0  0
  8  9  1  0  0  0  0
  8 10  4  0  0  0  0
 10 11  1  0  0  0  0
 11 12  1  0  0  0  0
 12 13  2  0  0  0  0
 12 14  2  0  0  0  0
 12 15  1  0  0  0  0
 15 16  1  0  0  0  0
 15 17  1  0  0  0  0
 15 18  1  0  0  0  0
 10 19  4  0  0  0  0
 19 20  1  0  0  0  0
 19 21  4  0  0  0  0
 21  5  4  0  0  0  0
 21 22  1  0  0  0  0
  3 23  1  0  0  0  0
 23 24  1  0  0  0  0
  1 25  1  0  0  0  0
  1 26  1  0  0  0  0
  1 27  1  0  0  0  0
M  END
> <CAS>
66952-49-6

> <NAME>
Methasulfocarb

> <preferred_name>
Methasulfocarb

> <iupac>
4-[(methylcarbamoyl)sulfanyl]phenyl methanesulfonate

> <SMILES>
CN=C(O)Sc1ccc(cc1)OS(C)(=O)=O

> <Canonical_QSARr>
CN=C(O)Sc1ccc(cc1)OS(C)(=O)=O

> <InChI_Code_QSARr>
InChI=1S/C9H11NO4S2/c1-10-9(11)15-8-5-3-7(4-6-8)14-16(2,12)13/h3-6H,1-2H3,(H,10,11)

> <InChI Key_QSARr>
IXJOSTZEBSTPAG-UHFFFAOYSA-N

> <Salt_Solvent>
?

> <WS Temperature>


> <WS Reference>
TOMLIN,C (1994)

> <dsstox_substance_id>
DTXSID9058155

> <LogMolar>
-2.7359

$$$$
67485-29-4
  -INDIGO-01081615412D

 59 61  0  0  0  0  0  0  0  0999 V2000
    0.0001    3.2001    0.0000 C   0  0  0  0  0  0  0  0  0  0  0  0
   -1.3855    2.4000    0.0000 N   0  0  0  0  0  0  0  0  0  0  0  0
   -2.7714    3.2001    0.0000 H   0  0  0  0  0  0  0  0  0  0  0  0
   -1.3855    0.7999    0.0000 C   0  0  0  0  0  0  0  0  0  0  0  0
   -2.9613    1.0777    0.0000 H   0  0  0  0  0  0  0  0  0  0  0  0
   -2.1857   -0.5856    0.0000 H   0  0  0  0  0  0  0  0  0  0  0  0
    0.0001    0.0001    0.0000 C   0  0  0  0  0  0  0  0  0  0  0  0
   -1.0285   -1.2258    0.0000 C   0  0  0  0  0  0  0  0  0  0  0  0
   -2.0570   -2.4513    0.0000 H   0  0  0  0  0  0  0  0  0  0  0  0
   -0.4812   -2.7292    0.0000 H   0  0  0  0  0  0  0  0  0  0  0  0
   -2.6040   -1.5036    0.0000 H   0  0  0  0  0  0  0  0  0  0  0  0
    1.0283   -1.2258    0.0000 C   0  0  0  0  0  0  0  0  0  0  0  0
    2.0569   -2.4513    0.0000 H   0  0  0  0  0  0  0  0  0  0  0  0
    0.4814   -2.7292    0.0000 H   0  0  0  0  0  0  0  0  0  0  0  0
    2.6041   -1.5036    0.0000 H   0  0  0  0  0  0  0  0  0  0  0  0
    1.3857    0.7999    0.0000 C   0  0  0  0  0  0  0  0  0  0  0  0
    1.9329   -0.7035    0.0000 H   0  0  0  0  0  0  0  0  0  0  0  0
    2.9615    1.0777    0.0000 H   0  0  0  0  0  0  0  0  0  0  0  0
    1.3857    2.4000    0.0000 N   0  0  0  0  0  0  0  0  0  0  0  0
    2.7713    3.2001    0.0000 H   0  0  0  0  0  0  0  0  0  0  0  0
    0.0001    4.8000    0.0000 N   0  0  0  0  0  0  0  0  0  0  0  0
    1.3857    5.6000    0.0000 N   0  0  0  0  0  0  0  0  0  0  0  0
    1.3857    7.1999    0.0000 C   0  0  0  0  0  0  0  0  0  0  0  0
    2.7713    8.0000    0.0000 C   0  0  0  0  0  0  0  0  0  0  0  0
    4.1569    7.1999    0.0000 C   0  0  0  0  0  0  0  0  0  0  0  0
    5.5425    8.0000    0.0000 C   0  0  0  0  0  0  0  0  0  0  0  0
    5.5425    9.6001    0.0000 C   0  0  0  0  0  0  0  0  0  0  0  0
    4.1569   10.3999    0.0000 H   0  0  0  0  0  0  0  0  0  0  0  0
    6.9283   10.3999    0.0000 C   0  0  0  0  0  0  0  0  0  0  0  0
    6.9283   12.0001    0.0000 H   0  0  0  0  0  0  0  0  0  0  0  0
    8.3139    9.6001    0.0000 C   0  0  0  0  0  0  0  0  0  0  0  0
    9.6995   10.3999    0.0000 C   0  0  0  0  0  0  0  0  0  0  0  0
   11.0851   11.2000    0.0000 F   0  0  0  0  0  0  0  0  0  0  0  0
   11.0851    9.6001    0.0000 F   0  0  0  0  0  0  0  0  0  0  0  0
    9.6995   12.0001    0.0000 F   0  0  0  0  0  0  0  0  0  0  0  0
    8.3139    8.0000    0.0000 C   0  0  0  0  0  0  0  0  0  0  0  0
    9.6995    7.1999    0.0000 H   0  0  0  0  0  0  0  0  0  0  0  0
    6.9283    7.1999    0.0000 C   0  0  0  0  0  0  0  0  0  0  0  0
    6.9283    5.6000    0.0000 H   0  0  0  0  0  0  0  0  0  0  0  0
    4.1569    5.6000    0.0000 H   0  0  0  0  0  0  0  0  0  0  0  0
    2.7713    9.6001    0.0000 H   0  0  0  0  0  0  0  0  0  0  0  0
    0.0001    8.0000    0.0000 C   0  0  0  0  0  0  0  0  0  0  0  0
    0.0001    9.6001    0.0000 C   0  0  0  0  0  0  0  0  0  0  0  0
   -1.3855   10.3999    0.0000 C   0  0  0  0  0  0  0  0  0  0  0  0
   -1.3855   12.0001    0.0000 C   0  0  0  0  0  0  0  0  0  0  0  0
    0.0001   12.8001    0.0000 H   0  0  0  0  0  0  0  0  0  0  0  0
   -2.7714   12.8001    0.0000 C   0  0  0  0  0  0  0  0  0  0  0  0
   -2.7714   14.4000    0.0000 H   0  0  0  0  0  0  0  0  0  0  0  0
   -4.1570   12.0001    0.0000 C   0  0  0  0  0  0  0  0  0  0  0  0
   -5.5426   12.8001    0.0000 C   0  0  0  0  0  0  0  0  0  0  0  0
   -6.9282   13.5999    0.0000 F   0  0  0  0  0  0  0  0  0  0  0  0
   -5.5426   14.4000    0.0000 F   0  0  0  0  0  0  0  0  0  0  0  0
   -6.9282   12.0001    0.0000 F   0  0  0  0  0  0  0  0  0  0  0  0
   -4.1570   10.3999    0.0000 C   0  0  0  0  0  0  0  0  0  0  0  0
   -5.5426    9.6001    0.0000 H   0  0  0  0  0  0  0  0  0  0  0  0
   -2.7714    9.6001    0.0000 C   0  0  0  0  0  0  0  0  0  0  0  0
   -2.7714    8.0000    0.0000 H   0  0  0  0  0  0  0  0  0  0  0  0
    1.3857   10.3999    0.0000 H   0  0  0  0  0  0  0  0  0  0  0  0
   -1.3855    7.1999    0.0000 H   0  0  0  0  0  0  0  0  0  0  0  0
  1  2  1  0  0  0  0
  2  3  1  0  0  0  0
  2  4  1  0  0  0  0
  4  5  1  0  0  0  0
  4  6  1  0  0  0  0
  4  7  1  0  0  0  0
  7  8  1  0  0  0  0
  8  9  1  0  0  0  0
  8 10  1  0  0  0  0
  8 11  1  0  0  0  0
  7 12  1  0  0  0  0
 12 13  1  0  0  0  0
 12 14  1  0  0  0  0
 12 15  1  0  0  0  0
  7 16  1  0  0  0  0
 16 17  1  0  0  0  0
 16 18  1  0  0  0  0
 16 19  1  0  0  0  0
 19  1  1  0  0  0  0
 19 20  1  0  0  0  0
  1 21  2  0  0  0  0
 21 22  1  0  0  0  0
 22 23  2  0  0  0  0
 23 24  1  0  0  0  0
 24 25  2  0  0  0  0
 25 26  1  0  0  0  0
 26 27  4  0  0  0  0
 27 28  1  0  0  0  0
 27 29  4  0  0  0  0
 29 30  1  0  0  0  0
 29 31  4  0  0  0  0
 31 32  1  0  0  0  0
 32 33  1  0  0  0  0
 32 34  1  0  0  0  0
 32 35  1  0  0  0  0
 31 36  4  0  0  0  0
 36 37  1  0  0  0  0
 36 38  4  0  0  0  0
 38 26  4  0  0  0  0
 38 39  1  0  0  0  0
 25 40  1  0  0  0  0
 24 41  1  0  0  0  0
 23 42  1  0  0  0  0
 42 43  2  0  0  0  0
 43 44  1  0  0  0  0
 44 45  4  0  0  0  0
 45 46  1  0  0  0  0
 45 47  4  0  0  0  0
 47 48  1  0  0  0  0
 47 49  4  0  0  0  0
 49 50  1  0  0  0  0
 50 51  1  0  0  0  0
 50 52  1  0  0  0  0
 50 53  1  0  0  0  0
 49 54  4  0  0  0  0
 54 55  1  0  0  0  0
 54 56  4  0  0  0  0
 56 44  4  0  0  0  0
 56 57  1  0  0  0  0
 43 58  1  0  0  0  0
 42 59  1  0  0  0  0
M  END
> <CAS>
67485-29-4

> <NAME>
HYDRAMETHYLNON

> <preferred_name>
Hydramethylnon

> <iupac>
2-({(1E,4E)-1,5-bis[4-(trifluoromethyl)phenyl]penta-1,4-dien-3-ylidene}hydrazinylidene)-5,5-dimethylhexahydropyrimidine

> <SMILES>
CC1(C)CNC(NC1)=NN=C(/C=C/c1ccc(cc1)C(F)(F)F)/C=C/c1ccc(cc1)C(F)(F)F

> <Canonical_QSARr>
CC1(C)CNC(NC1)=NN=C(C=Cc1ccc(cc1)C(F)(F)F)C=Cc1ccc(cc1)C(F)(F)F

> <InChI_Code_QSARr>
InChI=1S/C25H24F6N4/c1-23(2)15-32-22(33-16-23)35-34-21(13-7-17-3-9-19(10-4-17)24(26,27)28)14-8-18-5-11-20(12-6-18)25(29,30)31/h3-14H,15-16H2,1-2H3,(H2,32,33,35)/b13-7+,14-8+

> <InChI Key_QSARr>
IQVNEKKDSLOHHK-FNCQTZNRSA-N

> <Salt_Solvent>
?

> <WS Temperature>
25

> <WS Reference>
TOMLIN,C (1994)

> <dsstox_substance_id>
DTXSID6023868

> <LogMolar>
-7.916

$$$$
67792-85-2
  -INDIGO-01081615412D

 21 20  0  0  0  0  0  0  0  0999 V2000
   -2.4000   -1.3856    0.0000 O   0  0  0  0  0  0  0  0  0  0  0  0
   -4.0000   -1.3856    0.0000 C   0  0  0  0  0  0  0  0  0  0  0  0
   -5.6000   -1.3856    0.0000 C   0  0  0  0  0  0  0  0  0  0  0  0
   -7.2000   -1.3856    0.0000 H   0  0  0  0  0  0  0  0  0  0  0  0
   -6.4000   -2.7713    0.0000 H   0  0  0  0  0  0  0  0  0  0  0  0
   -6.4000    0.0000    0.0000 H   0  0  0  0  0  0  0  0  0  0  0  0
   -4.0000   -2.9856    0.0000 H   0  0  0  0  0  0  0  0  0  0  0  0
   -4.0000    0.2144    0.0000 H   0  0  0  0  0  0  0  0  0  0  0  0
   -1.6000    0.0000    0.0000 C   0  0  0  0  0  0  0  0  0  0  0  0
    0.0000    0.0000    0.0000 C   0  0  0  0  0  0  0  0  0  0  0  0
    1.6000    0.0000    0.0000 N   0  0  0  0  0  0  0  0  0  0  0  0
    2.4000    1.3856    0.0000 C   0  0  0  0  0  0  0  0  0  0  0  0
    4.0000    1.3856    0.0000 N   0  0  0  0  0  0  0  0  0  0  0  0
    4.8000    2.7713    0.0000 H   0  0  0  0  0  0  0  0  0  0  0  0
    4.8000    0.0000    0.0000 H   0  0  0  0  0  0  0  0  0  0  0  0
    1.6000    2.7713    0.0000 O   0  0  0  0  0  0  0  0  0  0  0  0
    2.4000   -1.3856    0.0000 N   0  0  0  0  0  0  0  0  0  0  0  0
    4.0000   -1.3856    0.0000 O   0  0  0  0  0  0  0  0  0  0  0  0
    0.0000    1.6000    0.0000 H   0  0  0  0  0  0  0  0  0  0  0  0
    0.0000   -1.6000    0.0000 H   0  0  0  0  0  0  0  0  0  0  0  0
   -2.4000    1.3856    0.0000 O   0  0  0  0  0  0  0  0  0  0  0  0
  1  2  1  0  0  0  0
  2  3  1  0  0  0  0
  3  4  1  0  0  0  0
  3  5  1  0  0  0  0
  3  6  1  0  0  0  0
  2  7  1  0  0  0  0
  2  8  1  0  0  0  0
  1  9  1  0  0  0  0
  9 10  1  0  0  0  0
 10 11  1  0  0  0  0
 11 12  1  0  0  0  0
 12 13  1  0  0  0  0
 13 14  1  0  0  0  0
 13 15  1  0  0  0  0
 12 16  2  0  0  0  0
 11 17  1  0  0  0  0
 17 18  2  0  0  0  0
 10 19  1  0  0  0  0
 10 20  1  0  0  0  0
  9 21  2  0  0  0  0
M  END
> <CAS>
67792-85-2

> <NAME>
Glycine, N-(aminocarbonyl)-N-nitroso-, ethyl est

> <preferred_name>
Glycine, N-carbamoyl-N-nitroso-, ethyl ester

> <iupac>
ethyl 2-(carbamoyl-nitrosoamino)acetate

> <SMILES>
CCOC(=O)CN(N=O)C(N)=O

> <Canonical_QSARr>
CCOC(=O)CN(N=O)C(N)=O

> <InChI_Code_QSARr>
InChI=1S/C5H9N3O4/c1-2-12-4(9)3-8(7-11)5(6)10/h2-3H2,1H3,(H2,6,10)

> <InChI Key_QSARr>
RFAPTJJTVLWLJY-UHFFFAOYSA-N

> <Salt_Solvent>
?

> <WS Temperature>


> <WS Reference>
BEILSTEIN

> <dsstox_substance_id>
DTXSID80218045

> <LogMolar>
0.7566

$$$$
67967-11-7
  -INDIGO-01081615412D

 17 18  0  0  0  0  0  0  0  0999 V2000
    1.3856    4.0000    0.0000 O   0  0  0  0  0  0  0  0  0  0  0  0
    1.3856    2.4000    0.0000 C   0  0  0  0  0  0  0  0  0  0  0  0
    0.0001    1.6000    0.0000 C   0  0  0  0  0  0  0  0  0  0  0  0
    0.0001    0.0000    0.0000 C   0  0  0  0  0  0  0  0  0  0  0  0
   -1.3856   -0.8000    0.0000 C   0  0  0  0  0  0  0  0  0  0  0  0
   -2.7712    0.0000    0.0000 C   0  0  0  0  0  0  0  0  0  0  0  0
   -2.7712    1.6000    0.0000 C   0  0  0  0  0  0  0  0  0  0  0  0
   -1.3856    2.4000    0.0000 N   0  0  0  1  0  0  0  0  0  0  0  0
   -4.1569    2.4000    0.0000 H   0  0  0  0  0  0  0  0  0  0  0  0
   -4.1569   -0.8000    0.0000 H   0  0  0  0  0  0  0  0  0  0  0  0
   -1.3856   -2.4000    0.0000 H   0  0  0  0  0  0  0  0  0  0  0  0
    1.3856   -0.8000    0.0000 C   0  0  0  0  0  0  0  0  0  0  0  0
    1.3856   -2.4000    0.0000 H   0  0  0  0  0  0  0  0  0  0  0  0
    2.7712    0.0000    0.0000 C   0  0  0  0  0  0  0  0  0  0  0  0
    4.1569   -0.8000    0.0000 H   0  0  0  0  0  0  0  0  0  0  0  0
    2.7712    1.6000    0.0000 N   0  0  0  0  0  0  0  0  0  0  0  0
    4.1569    2.4000    0.0000 H   0  0  0  0  0  0  0  0  0  0  0  0
  1  2  2  0  0  0  0
  2  3  1  0  0  0  0
  3  4  4  0  0  0  0
  4  5  4  0  0  0  0
  5  6  4  0  0  0  0
  6  7  4  0  0  0  0
  7  8  4  0  0  0  0
  8  3  4  0  0  0  0
  7  9  1  0  0  0  0
  6 10  1  0  0  0  0
  5 11  1  0  0  0  0
  4 12  1  0  0  0  0
 12 13  1  0  0  0  0
 12 14  2  0  0  0  0
 14 15  1  0  0  0  0
 14 16  1  0  0  0  0
 16  2  1  0  0  0  0
 16 17  1  0  0  0  0
M  END
> <CAS>
67967-11-7

> <NAME>
1,7-Naphthyridin-8(7H)-one

> <preferred_name>
PUBCHEM_12441413

> <iupac>
C8H6N2O

> <SMILES>
O=C1NC=Cc2ccc[n]c21

> <Canonical_QSARr>
O=C1NC=Cc2ccc[n]c21

> <InChI_Code_QSARr>
InChI=1S/C8H6N2O/c11-8-7-6(3-5-10-8)2-1-4-9-7/h1-5H,(H,10,11)

> <InChI Key_QSARr>
VTUQISVBYRDYAW-UHFFFAOYSA-N

> <Salt_Solvent>
?

> <WS Temperature>
20

> <WS Reference>
BEILSTEIN

> <dsstox_substance_id>
DTXSID80498385

> <LogMolar>
-1.1428

$$$$
68157-60-8
  -INDIGO-01081615412D

 27 28  0  0  0  0  0  0  0  0999 V2000
    2.7714   -0.0000    0.0000 C   0  0  0  0  0  0  0  0  0  0  0  0
    1.3856    0.8000    0.0000 N   0  0  0  0  0  0  0  0  0  0  0  0
   -0.0001   -0.0000    0.0000 C   0  0  0  0  0  0  0  0  0  0  0  0
   -1.3856    0.8000    0.0000 C   0  0  0  0  0  0  0  0  0  0  0  0
   -1.3856    2.4000    0.0000 H   0  0  0  0  0  0  0  0  0  0  0  0
   -2.7714   -0.0000    0.0000 C   0  0  0  0  0  0  0  0  0  0  0  0
   -4.1569    0.8000    0.0000 H   0  0  0  0  0  0  0  0  0  0  0  0
   -2.7712   -1.6000    0.0000 C   0  0  0  0  0  0  0  0  0  0  0  0
   -4.1569   -2.4000    0.0000 H   0  0  0  0  0  0  0  0  0  0  0  0
   -1.3856   -2.4000    0.0000 C   0  0  0  0  0  0  0  0  0  0  0  0
   -1.3856   -4.0000    0.0000 H   0  0  0  0  0  0  0  0  0  0  0  0
   -0.0001   -1.6000    0.0000 C   0  0  0  0  0  0  0  0  0  0  0  0
    1.3856   -2.4000    0.0000 H   0  0  0  0  0  0  0  0  0  0  0  0
    1.3856    2.4000    0.0000 H   0  0  0  0  0  0  0  0  0  0  0  0
    4.1569    0.8000    0.0000 N   0  0  0  0  0  0  0  0  0  0  0  0
    5.5427   -0.0000    0.0000 C   0  0  0  0  0  0  0  0  0  0  0  0
    5.5427   -1.6000    0.0000 C   0  0  0  0  0  0  0  0  0  0  0  0
    4.1569   -2.4000    0.0000 H   0  0  0  0  0  0  0  0  0  0  0  0
    6.9282   -2.4000    0.0000 C   0  0  0  0  0  0  0  0  0  0  0  0
    6.9282   -4.0000    0.0000 H   0  0  0  0  0  0  0  0  0  0  0  0
    8.3139   -1.6000    0.0000 N   0  0  0  1  0  0  0  0  0  0  0  0
    8.3139   -0.0000    0.0000 C   0  0  0  0  0  0  0  0  0  0  0  0
    9.6995    0.8000    0.0000 Cl  0  0  0  0  0  0  0  0  0  0  0  0
    6.9282    0.8000    0.0000 C   0  0  0  0  0  0  0  0  0  0  0  0
    6.9282    2.4000    0.0000 H   0  0  0  0  0  0  0  0  0  0  0  0
    4.1569    2.4000    0.0000 H   0  0  0  0  0  0  0  0  0  0  0  0
    2.7714   -1.6000    0.0000 O   0  0  0  0  0  0  0  0  0  0  0  0
  1  2  1  0  0  0  0
  2  3  1  0  0  0  0
  3  4  4  0  0  0  0
  4  5  1  0  0  0  0
  4  6  4  0  0  0  0
  6  7  1  0  0  0  0
  6  8  4  0  0  0  0
  8  9  1  0  0  0  0
  8 10  4  0  0  0  0
 10 11  1  0  0  0  0
 10 12  4  0  0  0  0
 12  3  4  0  0  0  0
 12 13  1  0  0  0  0
  2 14  1  0  0  0  0
  1 15  1  0  0  0  0
 15 16  1  0  0  0  0
 16 17  4  0  0  0  0
 17 18  1  0  0  0  0
 17 19  4  0  0  0  0
 19 20  1  0  0  0  0
 19 21  4  0  0  0  0
 21 22  4  0  0  0  0
 22 23  1  0  0  0  0
 22 24  4  0  0  0  0
 24 16  4  0  0  0  0
 24 25  1  0  0  0  0
 15 26  1  0  0  0  0
  1 27  2  0  0  0  0
M  END
> <CAS>
68157-60-8

> <NAME>
Forchlorfenuron

> <preferred_name>
Forchlorfenuron

> <iupac>
1-(2-chloropyridin-4-yl)-3-phenylurea

> <SMILES>
O=C(Nc1ccccc1)Nc1cc(Cl)[n]cc1

> <Canonical_QSARr>
O=C(Nc1ccccc1)Nc1cc(Cl)[n]cc1

> <InChI_Code_QSARr>
InChI=1S/C12H10ClN3O/c13-11-8-10(6-7-14-11)16-12(17)15-9-4-2-1-3-5-9/h1-8H,(H2,14,15,16,17)

> <InChI Key_QSARr>
GPXLRLUVLMHHIK-UHFFFAOYSA-N

> <Salt_Solvent>
?

> <WS Temperature>
21

> <WS Reference>
TOMLIN,C (1994); pH 6.4

> <dsstox_substance_id>
DTXSID1034634

> <LogMolar>
-3.8028

$$$$
68194-10-5
  -INDIGO-01081615412D

 22 23  0  0  0  0  0  0  0  0999 V2000
    3.2000    0.0000    0.0000 C   0  0  0  0  0  0  0  0  0  0  0  0
    2.4000    1.3856    0.0000 C   0  0  0  0  0  0  0  0  0  0  0  0
    3.2000    2.7713    0.0000 Cl  0  0  0  0  0  0  0  0  0  0  0  0
    0.8001    1.3856    0.0000 C   0  0  0  0  0  0  0  0  0  0  0  0
    0.0001    2.7713    0.0000 H   0  0  0  0  0  0  0  0  0  0  0  0
    0.0001    0.0000    0.0000 C   0  0  0  0  0  0  0  0  0  0  0  0
   -1.6001   -0.0000    0.0000 C   0  0  0  0  0  0  0  0  0  0  0  0
   -2.4001    1.3856    0.0000 C   0  0  0  0  0  0  0  0  0  0  0  0
   -1.6001    2.7713    0.0000 Cl  0  0  0  0  0  0  0  0  0  0  0  0
   -4.0000    1.3856    0.0000 C   0  0  0  0  0  0  0  0  0  0  0  0
   -4.8000    2.7713    0.0000 H   0  0  0  0  0  0  0  0  0  0  0  0
   -4.8000   -0.0000    0.0000 C   0  0  0  0  0  0  0  0  0  0  0  0
   -6.4000   -0.0000    0.0000 H   0  0  0  0  0  0  0  0  0  0  0  0
   -4.0000   -1.3856    0.0000 C   0  0  0  0  0  0  0  0  0  0  0  0
   -4.8000   -2.7713    0.0000 Cl  0  0  0  0  0  0  0  0  0  0  0  0
   -2.4001   -1.3856    0.0000 C   0  0  0  0  0  0  0  0  0  0  0  0
   -1.6001   -2.7713    0.0000 Cl  0  0  0  0  0  0  0  0  0  0  0  0
    0.8001   -1.3856    0.0000 C   0  0  0  0  0  0  0  0  0  0  0  0
    0.0001   -2.7713    0.0000 H   0  0  0  0  0  0  0  0  0  0  0  0
    2.4000   -1.3856    0.0000 C   0  0  0  0  0  0  0  0  0  0  0  0
    3.2000   -2.7713    0.0000 Cl  0  0  0  0  0  0  0  0  0  0  0  0
    4.8000    0.0000    0.0000 H   0  0  0  0  0  0  0  0  0  0  0  0
  1  2  4  0  0  0  0
  2  3  1  0  0  0  0
  2  4  4  0  0  0  0
  4  5  1  0  0  0  0
  4  6  4  0  0  0  0
  6  7  1  0  0  0  0
  7  8  4  0  0  0  0
  8  9  1  0  0  0  0
  8 10  4  0  0  0  0
 10 11  1  0  0  0  0
 10 12  4  0  0  0  0
 12 13  1  0  0  0  0
 12 14  4  0  0  0  0
 14 15  1  0  0  0  0
 14 16  4  0  0  0  0
 16  7  4  0  0  0  0
 16 17  1  0  0  0  0
  6 18  4  0  0  0  0
 18 19  1  0  0  0  0
 18 20  4  0  0  0  0
 20  1  4  0  0  0  0
 20 21  1  0  0  0  0
  1 22  1  0  0  0  0
M  END
> <CAS>
68194-10-5

> <NAME>
1,1'-Biphenyl, 2,3,3',5',6-pentachloro-

> <preferred_name>
2,3,3',5',6-Pentachlorobiphenyl

> <iupac>
1,2,4-trichloro-3-(3,5-dichlorophenyl)benzene

> <SMILES>
Clc1ccc(Cl)c(-c2cc(Cl)cc(Cl)c2)c1Cl

> <Canonical_QSARr>
Clc1ccc(Cl)c(-c2cc(Cl)cc(Cl)c2)c1Cl

> <InChI_Code_QSARr>
InChI=1S/C12H5Cl5/c13-7-3-6(4-8(14)5-7)11-9(15)1-2-10(16)12(11)17/h1-5H

> <InChI Key_QSARr>
YDGFMDPEJCJZEV-UHFFFAOYSA-N

> <Salt_Solvent>
?

> <WS Temperature>
25

> <WS Reference>
PATIL,GS (1991)

> <dsstox_substance_id>
DTXSID4074198

> <LogMolar>
-7.95

$$$$
68194-15-0
  -INDIGO-01081615412D

 22 23  0  0  0  0  0  0  0  0999 V2000
    3.2000    0.0000    0.0000 C   0  0  0  0  0  0  0  0  0  0  0  0
    2.4000    1.3856    0.0000 C   0  0  0  0  0  0  0  0  0  0  0  0
    3.2000    2.7713    0.0000 H   0  0  0  0  0  0  0  0  0  0  0  0
    0.8001    1.3856    0.0000 C   0  0  0  0  0  0  0  0  0  0  0  0
    0.0001    2.7713    0.0000 Cl  0  0  0  0  0  0  0  0  0  0  0  0
    0.0001    0.0000    0.0000 C   0  0  0  0  0  0  0  0  0  0  0  0
   -1.6001   -0.0000    0.0000 C   0  0  0  0  0  0  0  0  0  0  0  0
   -2.4001    1.3856    0.0000 C   0  0  0  0  0  0  0  0  0  0  0  0
   -1.6001    2.7713    0.0000 H   0  0  0  0  0  0  0  0  0  0  0  0
   -4.0000    1.3856    0.0000 C   0  0  0  0  0  0  0  0  0  0  0  0
   -4.8000    2.7713    0.0000 Cl  0  0  0  0  0  0  0  0  0  0  0  0
   -4.8000   -0.0000    0.0000 C   0  0  0  0  0  0  0  0  0  0  0  0
   -6.4000   -0.0000    0.0000 Cl  0  0  0  0  0  0  0  0  0  0  0  0
   -4.0000   -1.3856    0.0000 C   0  0  0  0  0  0  0  0  0  0  0  0
   -4.8000   -2.7713    0.0000 Cl  0  0  0  0  0  0  0  0  0  0  0  0
   -2.4001   -1.3856    0.0000 C   0  0  0  0  0  0  0  0  0  0  0  0
   -1.6001   -2.7713    0.0000 Cl  0  0  0  0  0  0  0  0  0  0  0  0
    0.8001   -1.3856    0.0000 C   0  0  0  0  0  0  0  0  0  0  0  0
    0.0001   -2.7713    0.0000 Cl  0  0  0  0  0  0  0  0  0  0  0  0
    2.4000   -1.3856    0.0000 C   0  0  0  0  0  0  0  0  0  0  0  0
    3.2000   -2.7713    0.0000 H   0  0  0  0  0  0  0  0  0  0  0  0
    4.8000    0.0000    0.0000 H   0  0  0  0  0  0  0  0  0  0  0  0
  1  2  4  0  0  0  0
  2  3  1  0  0  0  0
  2  4  4  0  0  0  0
  4  5  1  0  0  0  0
  4  6  4  0  0  0  0
  6  7  1  0  0  0  0
  7  8  4  0  0  0  0
  8  9  1  0  0  0  0
  8 10  4  0  0  0  0
 10 11  1  0  0  0  0
 10 12  4  0  0  0  0
 12 13  1  0  0  0  0
 12 14  4  0  0  0  0
 14 15  1  0  0  0  0
 14 16  4  0  0  0  0
 16  7  4  0  0  0  0
 16 17  1  0  0  0  0
  6 18  4  0  0  0  0
 18 19  1  0  0  0  0
 18 20  4  0  0  0  0
 20  1  4  0  0  0  0
 20 21  1  0  0  0  0
  1 22  1  0  0  0  0
M  END
> <CAS>
68194-15-0

> <NAME>
2,2',3,4,5,6'-HEXACHLOROBIPHENYL

> <preferred_name>
2,2',3,4,5,6'-Hexachlorobiphenyl

> <iupac>
1,2,3,4-tetrachloro-5-(2,6-dichlorophenyl)benzene

> <SMILES>
Clc1c(cc(Cl)c(Cl)c1Cl)-c1c(Cl)cccc1Cl

> <Canonical_QSARr>
Clc1c(cc(Cl)c(Cl)c1Cl)-c1c(Cl)cccc1Cl

> <InChI_Code_QSARr>
InChI=1S/C12H4Cl6/c13-6-2-1-3-7(14)9(6)5-4-8(15)11(17)12(18)10(5)16/h1-4H

> <InChI Key_QSARr>
UQPQKLGBEKEZBV-UHFFFAOYSA-N

> <Salt_Solvent>
?

> <WS Temperature>
25

> <WS Reference>
PATIL,GS (1991)

> <dsstox_substance_id>
DTXSID1074202

> <LogMolar>
-8.13

$$$$
68359-37-5
  -INDIGO-01081615412D

 47 49  0  0  0  0  0  0  0  0999 V2000
    0.0001    0.0001    0.0000 C   0  0  0  0  0  0  0  0  0  0  0  0
   -1.0283   -1.2256    0.0000 C   0  0  0  0  0  0  0  0  0  0  0  0
   -2.0570   -2.4513    0.0000 H   0  0  0  0  0  0  0  0  0  0  0  0
   -2.6042   -0.9478    0.0000 H   0  0  0  0  0  0  0  0  0  0  0  0
   -0.4812   -2.7291    0.0000 H   0  0  0  0  0  0  0  0  0  0  0  0
   -1.0283    1.2257    0.0000 C   0  0  0  0  0  0  0  0  0  0  0  0
   -2.0570    2.4513    0.0000 H   0  0  0  0  0  0  0  0  0  0  0  0
   -2.6042    0.9478    0.0000 H   0  0  0  0  0  0  0  0  0  0  0  0
   -0.4812    2.7293    0.0000 H   0  0  0  0  0  0  0  0  0  0  0  0
    1.3858   -0.8000    0.0000 C   0  0  0  0  0  0  0  0  0  0  0  0
    2.9613   -1.0779    0.0000 C   0  0  0  0  0  0  0  0  0  0  0  0
    3.7857   -0.5856    0.0000 O   0  0  0  0  0  0  0  0  0  0  0  0
    3.5087   -2.5814    0.0000 O   0  0  0  0  0  0  0  0  0  0  0  0
    5.0842   -2.8592    0.0000 C   0  0  0  0  0  0  0  0  0  0  0  0
    4.8063   -4.4348    0.0000 C   0  0  0  0  0  0  0  0  0  0  0  0
    4.5285   -6.0106    0.0000 N   0  0  0  0  0  0  0  0  0  0  0  0
    6.6600   -3.1370    0.0000 C   0  0  0  0  0  0  0  0  0  0  0  0
    7.2072   -4.6405    0.0000 C   0  0  0  0  0  0  0  0  0  0  0  0
    6.1787   -5.8662    0.0000 H   0  0  0  0  0  0  0  0  0  0  0  0
    8.7830   -4.9184    0.0000 C   0  0  0  0  0  0  0  0  0  0  0  0
    9.3301   -6.4219    0.0000 H   0  0  0  0  0  0  0  0  0  0  0  0
    9.8114   -3.6927    0.0000 C   0  0  0  0  0  0  0  0  0  0  0  0
   11.3869   -3.9705    0.0000 F   0  0  0  0  0  0  0  0  0  0  0  0
    9.2640   -2.1892    0.0000 C   0  0  0  0  0  0  0  0  0  0  0  0
   10.2924   -0.9635    0.0000 O   0  0  0  0  0  0  0  0  0  0  0  0
   11.7961   -0.4162    0.0000 C   0  0  0  0  0  0  0  0  0  0  0  0
   13.0216   -1.4447    0.0000 C   0  0  0  0  0  0  0  0  0  0  0  0
   12.7440   -3.0204    0.0000 H   0  0  0  0  0  0  0  0  0  0  0  0
   14.5253   -0.8975    0.0000 C   0  0  0  0  0  0  0  0  0  0  0  0
   15.7508   -1.9260    0.0000 H   0  0  0  0  0  0  0  0  0  0  0  0
   14.8032    0.6782    0.0000 C   0  0  0  0  0  0  0  0  0  0  0  0
   16.3066    1.2254    0.0000 H   0  0  0  0  0  0  0  0  0  0  0  0
   13.5774    1.7067    0.0000 C   0  0  0  0  0  0  0  0  0  0  0  0
   13.8553    3.2823    0.0000 H   0  0  0  0  0  0  0  0  0  0  0  0
   12.0740    1.1594    0.0000 C   0  0  0  0  0  0  0  0  0  0  0  0
   10.8482    2.1879    0.0000 H   0  0  0  0  0  0  0  0  0  0  0  0
    7.6885   -1.9113    0.0000 C   0  0  0  0  0  0  0  0  0  0  0  0
    7.1411   -0.4078    0.0000 H   0  0  0  0  0  0  0  0  0  0  0  0
    5.3621   -1.2836    0.0000 H   0  0  0  0  0  0  0  0  0  0  0  0
    0.8384   -2.3035    0.0000 H   0  0  0  0  0  0  0  0  0  0  0  0
    1.3858    0.8000    0.0000 C   0  0  0  0  0  0  0  0  0  0  0  0
    2.9855    0.8000    0.0000 C   0  0  0  0  0  0  0  0  0  0  0  0
    3.7857    2.1856    0.0000 C   0  0  0  0  0  0  0  0  0  0  0  0
    5.3858    2.1856    0.0000 Cl  0  0  0  0  0  0  0  0  0  0  0  0
    2.9855    3.5713    0.0000 Cl  0  0  0  0  0  0  0  0  0  0  0  0
    3.7909    0.2771    0.0000 H   0  0  0  0  0  0  0  0  0  0  0  0
    0.8384    2.3035    0.0000 H   0  0  0  0  0  0  0  0  0  0  0  0
  1  2  1  0  0  0  0
  2  3  1  0  0  0  0
  2  4  1  0  0  0  0
  2  5  1  0  0  0  0
  1  6  1  0  0  0  0
  6  7  1  0  0  0  0
  6  8  1  0  0  0  0
  6  9  1  0  0  0  0
  1 10  1  0  0  0  0
 10 11  1  0  0  0  0
 11 12  2  0  0  0  0
 11 13  1  0  0  0  0
 13 14  1  0  0  0  0
 14 15  1  0  0  0  0
 15 16  3  0  0  0  0
 14 17  1  0  0  0  0
 17 18  4  0  0  0  0
 18 19  1  0  0  0  0
 18 20  4  0  0  0  0
 20 21  1  0  0  0  0
 20 22  4  0  0  0  0
 22 23  1  0  0  0  0
 22 24  4  0  0  0  0
 24 25  1  0  0  0  0
 25 26  1  0  0  0  0
 26 27  4  0  0  0  0
 27 28  1  0  0  0  0
 27 29  4  0  0  0  0
 29 30  1  0  0  0  0
 29 31  4  0  0  0  0
 31 32  1  0  0  0  0
 31 33  4  0  0  0  0
 33 34  1  0  0  0  0
 33 35  4  0  0  0  0
 35 26  4  0  0  0  0
 35 36  1  0  0  0  0
 24 37  4  0  0  0  0
 37 17  4  0  0  0  0
 37 38  1  0  0  0  0
 14 39  1  0  0  0  0
 10 40  1  0  0  0  0
 10 41  1  0  0  0  0
 41  1  1  0  0  0  0
 41 42  1  0  0  0  0
 42 43  2  0  0  0  0
 43 44  1  0  0  0  0
 43 45  1  0  0  0  0
 42 46  1  0  0  0  0
 41 47  1  0  0  0  0
M  END
> <CAS>
68359-37-5

> <NAME>
CYFLUTHRIN

> <preferred_name>
Cyfluthrin

> <iupac>
cyano(4-fluoro-3-phenoxyphenyl)methyl 3-(2,2-dichloroethenyl)-2,2-dimethylcyclopropanecarboxylate

> <SMILES>
CC1(C)C(C1C=C(Cl)Cl)C(=O)OC(C#N)c1ccc(F)c(c1)Oc1ccccc1

> <Canonical_QSARr>
CC1(C)C(C1C=C(Cl)Cl)C(=O)OC(C#N)c1ccc(F)c(c1)Oc1ccccc1

> <InChI_Code_QSARr>
InChI=1S/C22H18Cl2FNO3/c1-22(2)15(11-19(23)24)20(22)21(27)29-18(12-26)13-8-9-16(25)17(10-13)28-14-6-4-3-5-7-14/h3-11,15,18,20H,1-2H3

> <InChI Key_QSARr>
QQODLKZGRKWIFG-UHFFFAOYSA-N

> <Salt_Solvent>
?

> <WS Temperature>
20

> <WS Reference>
TOMLIN,C (1997)

> <dsstox_substance_id>
DTXSID5035957

> <LogMolar>
-8.1607

$$$$
69327-76-0
  -INDIGO-01081615412D

 44 45  0  0  0  0  0  0  0  0999 V2000
   -3.1999   -0.0000    0.0000 S   0  0  0  0  0  0  0  0  0  0  0  0
   -4.8000   -0.0000    0.0000 C   0  0  0  0  0  0  0  0  0  0  0  0
   -4.5221    1.5757    0.0000 H   0  0  0  0  0  0  0  0  0  0  0  0
   -6.3036    0.5473    0.0000 H   0  0  0  0  0  0  0  0  0  0  0  0
   -5.5999   -1.3856    0.0000 N   0  0  0  0  0  0  0  0  0  0  0  0
   -7.2000   -1.3856    0.0000 C   0  0  0  0  0  0  0  0  0  0  0  0
   -7.9999   -0.0000    0.0000 C   0  0  0  0  0  0  0  0  0  0  0  0
   -7.2000    1.3856    0.0000 H   0  0  0  0  0  0  0  0  0  0  0  0
   -9.6000   -0.0000    0.0000 C   0  0  0  0  0  0  0  0  0  0  0  0
  -10.3999    1.3856    0.0000 H   0  0  0  0  0  0  0  0  0  0  0  0
  -10.3999   -1.3856    0.0000 C   0  0  0  0  0  0  0  0  0  0  0  0
  -12.0000   -1.3856    0.0000 H   0  0  0  0  0  0  0  0  0  0  0  0
   -9.6000   -2.7714    0.0000 C   0  0  0  0  0  0  0  0  0  0  0  0
  -10.3999   -4.1569    0.0000 H   0  0  0  0  0  0  0  0  0  0  0  0
   -7.9999   -2.7714    0.0000 C   0  0  0  0  0  0  0  0  0  0  0  0
   -7.2000   -4.1569    0.0000 H   0  0  0  0  0  0  0  0  0  0  0  0
   -4.8000   -2.7714    0.0000 C   0  0  0  0  0  0  0  0  0  0  0  0
   -5.5999   -4.1569    0.0000 O   0  0  0  0  0  0  0  0  0  0  0  0
   -3.1999   -2.7714    0.0000 N   0  0  0  0  0  0  0  0  0  0  0  0
   -2.4000   -4.1569    0.0000 C   0  0  0  0  0  0  0  0  0  0  0  0
   -2.4000   -5.7569    0.0000 C   0  0  0  0  0  0  0  0  0  0  0  0
   -2.4000   -7.3569    0.0000 H   0  0  0  0  0  0  0  0  0  0  0  0
   -3.7857   -6.5569    0.0000 H   0  0  0  0  0  0  0  0  0  0  0  0
   -1.0145   -6.5569    0.0000 H   0  0  0  0  0  0  0  0  0  0  0  0
   -1.0145   -3.3570    0.0000 C   0  0  0  0  0  0  0  0  0  0  0  0
    0.3713   -4.1569    0.0000 H   0  0  0  0  0  0  0  0  0  0  0  0
    0.3713   -2.5570    0.0000 H   0  0  0  0  0  0  0  0  0  0  0  0
   -1.0145   -4.9569    0.0000 H   0  0  0  0  0  0  0  0  0  0  0  0
   -3.7857   -4.9569    0.0000 H   0  0  0  0  0  0  0  0  0  0  0  0
   -2.4000   -1.3856    0.0000 C   0  0  0  0  0  0  0  0  0  0  0  0
   -0.8001   -1.3856    0.0000 N   0  0  0  0  0  0  0  0  0  0  0  0
    0.0000   -0.0000    0.0000 C   0  0  0  0  0  0  0  0  0  0  0  0
    1.0285    1.2257    0.0000 C   0  0  0  0  0  0  0  0  0  0  0  0
    2.0570    2.4514    0.0000 H   0  0  0  0  0  0  0  0  0  0  0  0
    2.6043    0.9479    0.0000 H   0  0  0  0  0  0  0  0  0  0  0  0
    0.4813    2.7292    0.0000 H   0  0  0  0  0  0  0  0  0  0  0  0
    1.3856   -0.8000    0.0000 C   0  0  0  0  0  0  0  0  0  0  0  0
    2.7713   -1.6000    0.0000 H   0  0  0  0  0  0  0  0  0  0  0  0
    2.7713   -0.0000    0.0000 H   0  0  0  0  0  0  0  0  0  0  0  0
    1.3856   -2.4000    0.0000 H   0  0  0  0  0  0  0  0  0  0  0  0
   -1.3857    0.8000    0.0000 C   0  0  0  0  0  0  0  0  0  0  0  0
   -1.3857    2.4000    0.0000 H   0  0  0  0  0  0  0  0  0  0  0  0
   -2.7712    1.6000    0.0000 H   0  0  0  0  0  0  0  0  0  0  0  0
    0.0000    1.6000    0.0000 H   0  0  0  0  0  0  0  0  0  0  0  0
  1  2  1  0  0  0  0
  2  3  1  0  0  0  0
  2  4  1  0  0  0  0
  2  5  1  0  0  0  0
  5  6  1  0  0  0  0
  6  7  4  0  0  0  0
  7  8  1  0  0  0  0
  7  9  4  0  0  0  0
  9 10  1  0  0  0  0
  9 11  4  0  0  0  0
 11 12  1  0  0  0  0
 11 13  4  0  0  0  0
 13 14  1  0  0  0  0
 13 15  4  0  0  0  0
 15  6  4  0  0  0  0
 15 16  1  0  0  0  0
  5 17  1  0  0  0  0
 17 18  2  0  0  0  0
 17 19  1  0  0  0  0
 19 20  1  0  0  0  0
 20 21  1  0  0  0  0
 21 22  1  0  0  0  0
 21 23  1  0  0  0  0
 21 24  1  0  0  0  0
 20 25  1  0  0  0  0
 25 26  1  0  0  0  0
 25 27  1  0  0  0  0
 25 28  1  0  0  0  0
 20 29  1  0  0  0  0
 19 30  1  0  0  0  0
 30  1  1  0  0  0  0
 30 31  2  0  0  0  0
 31 32  1  0  0  0  0
 32 33  1  0  0  0  0
 33 34  1  0  0  0  0
 33 35  1  0  0  0  0
 33 36  1  0  0  0  0
 32 37  1  0  0  0  0
 37 38  1  0  0  0  0
 37 39  1  0  0  0  0
 37 40  1  0  0  0  0
 32 41  1  0  0  0  0
 41 42  1  0  0  0  0
 41 43  1  0  0  0  0
 41 44  1  0  0  0  0
M  END
> <CAS>
69327-76-0

> <NAME>
Buprofezin

> <preferred_name>
Buprofezin

> <iupac>
2-(tert-butylimino)-5-phenyl-3-(propan-2-yl)-1,3,5-thiadiazinan-4-one

> <SMILES>
CC(C)(C)N=C1SCN(C(=O)N1C(C)C)c1ccccc1

> <Canonical_QSARr>
CC(C)(C)N=C1SCN(C(=O)N1C(C)C)c1ccccc1

> <InChI_Code_QSARr>
InChI=1S/C16H23N3OS/c1-12(2)19-14(17-16(3,4)5)21-11-18(15(19)20)13-9-7-6-8-10-13/h6-10,12H,11H2,1-5H3/b17-14-

> <InChI Key_QSARr>
PRLVTUNWOQKEAI-VKAVYKQESA-N

> <Salt_Solvent>
?

> <WS Temperature>
20

> <WS Reference>
TOMLIN,C (2003)

> <dsstox_substance_id>
DTXSID8034401

> <LogMolar>
-5.5307

$$$$
69497-24-1
  -INDIGO-01081615412D

  9  8  0  0  0  0  0  0  0  0999 V2000
   -0.0000    0.0000    0.0000 C   0  0  0  0  0  0  0  0  0  0  0  0
   -1.6000   -0.0000    0.0000 O   0  0  0  0  0  0  0  0  0  0  0  0
   -2.4000   -1.3856    0.0000 H   0  0  0  0  0  0  0  0  0  0  0  0
    1.6000    0.0000    0.0000 C   0  0  0  0  0  0  0  0  0  0  0  0
    3.2000    0.0000    0.0000 Cl  0  0  0  0  0  0  0  0  0  0  0  0
    2.4000   -1.3856    0.0000 Cl  0  0  0  0  0  0  0  0  0  0  0  0
    2.4000    1.3856    0.0000 Br  0  0  0  0  0  0  0  0  0  0  0  0
   -0.0000    1.6000    0.0000 H   0  0  0  0  0  0  0  0  0  0  0  0
   -0.0000   -1.6000    0.0000 H   0  0  0  0  0  0  0  0  0  0  0  0
  1  2  1  0  0  0  0
  2  3  1  0  0  0  0
  1  4  1  0  0  0  0
  4  5  1  0  0  0  0
  4  6  1  0  0  0  0
  4  7  1  0  0  0  0
  1  8  1  0  0  0  0
  1  9  1  0  0  0  0
M  END
> <CAS>
69497-24-1

> <NAME>
Ethanol, 2-bromo-2,2-dichloro-

> <preferred_name>


> <iupac>


> <SMILES>
OCC(Cl)(Cl)Br

> <Canonical_QSARr>
OCC(Cl)(Cl)Br

> <InChI_Code_QSARr>
InChI=1S/C2H3BrCl2O/c3-2(4,5)1-6/h6H,1H2

> <InChI Key_QSARr>
YZTOJSCFQRPGLD-UHFFFAOYSA-N

> <Salt_Solvent>
?

> <WS Temperature>
25

> <WS Reference>
BEILSTEIN

> <dsstox_substance_id>


> <LogMolar>
-0.4424

$$$$
69695-04-1
  -INDIGO-01081615412D

 41 42  0  0  0  0  0  0  0  0999 V2000
    2.4000   -1.3856    0.0000 O   0  0  0  0  0  0  0  0  0  0  0  0
    3.1999   -0.0000    0.0000 C   0  0  0  0  0  0  0  0  0  0  0  0
    4.5856   -0.8000    0.0000 C   0  0  0  0  0  0  0  0  0  0  0  0
    5.8112   -1.8284    0.0000 C   0  0  0  0  0  0  0  0  0  0  0  0
    7.0371   -2.8569    0.0000 H   0  0  0  0  0  0  0  0  0  0  0  0
    7.3148   -1.2812    0.0000 H   0  0  0  0  0  0  0  0  0  0  0  0
    5.5335   -3.4042    0.0000 H   0  0  0  0  0  0  0  0  0  0  0  0
    5.6141    0.4256    0.0000 C   0  0  0  0  0  0  0  0  0  0  0  0
    6.6425    1.6513    0.0000 H   0  0  0  0  0  0  0  0  0  0  0  0
    7.1899    0.1478    0.0000 H   0  0  0  0  0  0  0  0  0  0  0  0
    5.0669    1.9291    0.0000 H   0  0  0  0  0  0  0  0  0  0  0  0
    3.5571   -2.0257    0.0000 H   0  0  0  0  0  0  0  0  0  0  0  0
    4.4257    1.0284    0.0000 H   0  0  0  0  0  0  0  0  0  0  0  0
    2.4000    1.3857    0.0000 O   0  0  0  0  0  0  0  0  0  0  0  0
    0.8001    1.3857    0.0000 C   0  0  0  0  0  0  0  0  0  0  0  0
    1.3472    2.8892    0.0000 H   0  0  0  0  0  0  0  0  0  0  0  0
    0.4256    2.4141    0.0000 H   0  0  0  0  0  0  0  0  0  0  0  0
   -0.0001   -0.0000    0.0000 C   0  0  0  0  0  0  0  0  0  0  0  0
   -0.8000    1.3857    0.0000 C   0  0  0  0  0  0  0  0  0  0  0  0
   -0.4257    2.4141    0.0000 H   0  0  0  0  0  0  0  0  0  0  0  0
   -1.3473    2.8892    0.0000 H   0  0  0  0  0  0  0  0  0  0  0  0
   -2.4001    1.3857    0.0000 O   0  0  0  0  0  0  0  0  0  0  0  0
   -3.2000   -0.0000    0.0000 C   0  0  0  0  0  0  0  0  0  0  0  0
   -4.4256    1.0284    0.0000 C   0  0  0  0  0  0  0  0  0  0  0  0
   -5.4541    2.2541    0.0000 C   0  0  0  0  0  0  0  0  0  0  0  0
   -6.4825    3.4798    0.0000 H   0  0  0  0  0  0  0  0  0  0  0  0
   -7.0299    1.9763    0.0000 H   0  0  0  0  0  0  0  0  0  0  0  0
   -4.9070    3.7576    0.0000 H   0  0  0  0  0  0  0  0  0  0  0  0
   -5.6513   -0.0000    0.0000 C   0  0  0  0  0  0  0  0  0  0  0  0
   -6.8771   -1.0285    0.0000 H   0  0  0  0  0  0  0  0  0  0  0  0
   -7.1549    0.5473    0.0000 H   0  0  0  0  0  0  0  0  0  0  0  0
   -5.3735   -1.5756    0.0000 H   0  0  0  0  0  0  0  0  0  0  0  0
   -3.2000    2.0569    0.0000 H   0  0  0  0  0  0  0  0  0  0  0  0
   -4.4256   -1.0285    0.0000 H   0  0  0  0  0  0  0  0  0  0  0  0
   -2.4001   -1.3856    0.0000 O   0  0  0  0  0  0  0  0  0  0  0  0
   -0.8000   -1.3856    0.0000 C   0  0  0  0  0  0  0  0  0  0  0  0
   -1.3473   -2.8891    0.0000 H   0  0  0  0  0  0  0  0  0  0  0  0
   -0.4257   -2.4141    0.0000 H   0  0  0  0  0  0  0  0  0  0  0  0
    0.8001   -1.3856    0.0000 C   0  0  0  0  0  0  0  0  0  0  0  0
    0.4256   -2.4141    0.0000 H   0  0  0  0  0  0  0  0  0  0  0  0
    1.3472   -2.8891    0.0000 H   0  0  0  0  0  0  0  0  0  0  0  0
  1  2  1  0  0  0  0
  2  3  1  0  0  0  0
  3  4  1  0  0  0  0
  4  5  1  0  0  0  0
  4  6  1  0  0  0  0
  4  7  1  0  0  0  0
  3  8  1  0  0  0  0
  8  9  1  0  0  0  0
  8 10  1  0  0  0  0
  8 11  1  0  0  0  0
  3 12  1  0  0  0  0
  2 13  1  0  0  0  0
  2 14  1  0  0  0  0
 14 15  1  0  0  0  0
 15 16  1  0  0  0  0
 15 17  1  0  0  0  0
 15 18  1  0  0  0  0
 18 19  1  0  0  0  0
 19 20  1  0  0  0  0
 19 21  1  0  0  0  0
 19 22  1  0  0  0  0
 22 23  1  0  0  0  0
 23 24  1  0  0  0  0
 24 25  1  0  0  0  0
 25 26  1  0  0  0  0
 25 27  1  0  0  0  0
 25 28  1  0  0  0  0
 24 29  1  0  0  0  0
 29 30  1  0  0  0  0
 29 31  1  0  0  0  0
 29 32  1  0  0  0  0
 24 33  1  0  0  0  0
 23 34  1  0  0  0  0
 23 35  1  0  0  0  0
 35 36  1  0  0  0  0
 36 18  1  0  0  0  0
 36 37  1  0  0  0  0
 36 38  1  0  0  0  0
 18 39  1  0  0  0  0
 39  1  1  0  0  0  0
 39 40  1  0  0  0  0
 39 41  1  0  0  0  0
M  END
> <CAS>
69695-04-1

> <NAME>
2,4,8,10-Tetraoxaspiro[5.5]undecane, 3,9-bis(1-m

> <preferred_name>
2,4,8,10-Tetraoxaspiro[5.5]undecane, 3,9-bis(1-methylethyl)-

> <iupac>
C13H24O4

> <SMILES>
CC(C)C1OCC2(CO1)COC(OC2)C(C)C

> <Canonical_QSARr>
CC(C)C1OCC2(CO1)COC(OC2)C(C)C

> <InChI_Code_QSARr>
InChI=1S/C13H24O4/c1-9(2)11-14-5-13(6-15-11)7-16-12(10(3)4)17-8-13/h9-12H,5-8H2,1-4H3

> <InChI Key_QSARr>
NEBWHJITDZAZPU-UHFFFAOYSA-N

> <Salt_Solvent>
?

> <WS Temperature>
25

> <WS Reference>
BEILSTEIN

> <dsstox_substance_id>
DTXSID40461994

> <LogMolar>
-3.1138

$$$$
69806-34-4
  -INDIGO-01081615412D

 35 36  0  0  0  0  0  0  0  0999 V2000
    8.3138    1.6000    0.0000 C   0  0  0  0  0  0  0  0  0  0  0  0
    8.3138    0.0000    0.0000 N   0  0  0  1  0  0  0  0  0  0  0  0
    9.6994   -0.8001    0.0000 C   0  0  0  0  0  0  0  0  0  0  0  0
    9.6994   -2.4000    0.0000 H   0  0  0  0  0  0  0  0  0  0  0  0
   11.0853    0.0000    0.0000 C   0  0  0  0  0  0  0  0  0  0  0  0
   12.4708   -0.8001    0.0000 C   0  0  0  0  0  0  0  0  0  0  0  0
   13.8564   -1.6000    0.0000 F   0  0  0  0  0  0  0  0  0  0  0  0
   13.8564    0.0000    0.0000 F   0  0  0  0  0  0  0  0  0  0  0  0
   12.4708   -2.4000    0.0000 F   0  0  0  0  0  0  0  0  0  0  0  0
   11.0850    1.6000    0.0000 C   0  0  0  0  0  0  0  0  0  0  0  0
   12.4708    2.4000    0.0000 H   0  0  0  0  0  0  0  0  0  0  0  0
    9.6994    2.4000    0.0000 C   0  0  0  0  0  0  0  0  0  0  0  0
    9.6994    4.0000    0.0000 Cl  0  0  0  0  0  0  0  0  0  0  0  0
    6.9283    2.4000    0.0000 O   0  0  0  0  0  0  0  0  0  0  0  0
    5.5424    1.6000    0.0000 C   0  0  0  0  0  0  0  0  0  0  0  0
    4.1569    2.4000    0.0000 C   0  0  0  0  0  0  0  0  0  0  0  0
    4.1569    4.0000    0.0000 H   0  0  0  0  0  0  0  0  0  0  0  0
    2.7713    1.6000    0.0000 C   0  0  0  0  0  0  0  0  0  0  0  0
    1.3857    2.4000    0.0000 H   0  0  0  0  0  0  0  0  0  0  0  0
    2.7713    0.0000    0.0000 C   0  0  0  0  0  0  0  0  0  0  0  0
    1.3857   -0.8001    0.0000 O   0  0  0  0  0  0  0  0  0  0  0  0
   -0.0001    0.0000    0.0000 C   0  0  0  0  0  0  0  0  0  0  0  0
   -1.3857    0.8000    0.0000 C   0  0  0  0  0  0  0  0  0  0  0  0
   -2.7713    1.6000    0.0000 H   0  0  0  0  0  0  0  0  0  0  0  0
   -2.7713    0.0000    0.0000 H   0  0  0  0  0  0  0  0  0  0  0  0
   -1.3857    2.4000    0.0000 H   0  0  0  0  0  0  0  0  0  0  0  0
   -0.8001   -1.3857    0.0000 C   0  0  0  0  0  0  0  0  0  0  0  0
   -2.4001   -1.3857    0.0000 O   0  0  0  0  0  0  0  0  0  0  0  0
    0.0001   -2.7712    0.0000 O   0  0  0  0  0  0  0  0  0  0  0  0
   -0.8001   -4.1569    0.0000 H   0  0  0  0  0  0  0  0  0  0  0  0
    0.8001    1.3856    0.0000 H   0  0  0  0  0  0  0  0  0  0  0  0
    4.1569   -0.8001    0.0000 C   0  0  0  0  0  0  0  0  0  0  0  0
    4.1569   -2.4000    0.0000 H   0  0  0  0  0  0  0  0  0  0  0  0
    5.5424    0.0000    0.0000 C   0  0  0  0  0  0  0  0  0  0  0  0
    6.9283   -0.8001    0.0000 H   0  0  0  0  0  0  0  0  0  0  0  0
  1  2  4  0  0  0  0
  2  3  4  0  0  0  0
  3  4  1  0  0  0  0
  3  5  4  0  0  0  0
  5  6  1  0  0  0  0
  6  7  1  0  0  0  0
  6  8  1  0  0  0  0
  6  9  1  0  0  0  0
  5 10  4  0  0  0  0
 10 11  1  0  0  0  0
 10 12  4  0  0  0  0
 12  1  4  0  0  0  0
 12 13  1  0  0  0  0
  1 14  1  0  0  0  0
 14 15  1  0  0  0  0
 15 16  4  0  0  0  0
 16 17  1  0  0  0  0
 16 18  4  0  0  0  0
 18 19  1  0  0  0  0
 18 20  4  0  0  0  0
 20 21  1  0  0  0  0
 21 22  1  0  0  0  0
 22 23  1  0  0  0  0
 23 24  1  0  0  0  0
 23 25  1  0  0  0  0
 23 26  1  0  0  0  0
 22 27  1  0  0  0  0
 27 28  2  0  0  0  0
 27 29  1  0  0  0  0
 29 30  1  0  0  0  0
 22 31  1  0  0  0  0
 20 32  4  0  0  0  0
 32 33  1  0  0  0  0
 32 34  4  0  0  0  0
 34 15  4  0  0  0  0
 34 35  1  0  0  0  0
M  END
> <CAS>
69806-34-4

> <NAME>
HALOXYFOP

> <preferred_name>
Haloxyfop

> <iupac>
2-(4-{[3-chloro-5-(trifluoromethyl)pyridin-2-yl]oxy}phenoxy)propanoic acid

> <SMILES>
CC(Oc1ccc(cc1)Oc1[n]cc(cc1Cl)C(F)(F)F)C(O)=O

> <Canonical_QSARr>
CC(Oc1ccc(cc1)Oc1[n]cc(cc1Cl)C(F)(F)F)C(O)=O

> <InChI_Code_QSARr>
InChI=1S/C15H11ClF3NO4/c1-8(14(21)22)23-10-2-4-11(5-3-10)24-13-12(16)6-9(7-20-13)15(17,18)19/h2-8H,1H3,(H,21,22)

> <InChI Key_QSARr>
GOCUAJYOYBLQRH-UHFFFAOYSA-N

> <Salt_Solvent>
?

> <WS Temperature>
25

> <WS Reference>
TOMLIN,C (1997); pH 2.6

> <dsstox_substance_id>
DTXSID7042019

> <LogMolar>
-3.9209

$$$$
70136-02-6
  -INDIGO-01081615412D

 38 38  0  0  0  0  0  0  0  0999 V2000
   -6.4000   -0.0000    0.0000 O   0  0  0  0  0  0  0  0  0  0  0  0
   -7.1999   -1.3857    0.0000 C   0  0  0  0  0  0  0  0  0  0  0  0
   -8.8001   -1.3857    0.0000 C   0  0  0  0  0  0  0  0  0  0  0  0
   -9.6000   -0.0000    0.0000 C   0  0  0  0  0  0  0  0  0  0  0  0
   -8.8001    1.3857    0.0000 H   0  0  0  0  0  0  0  0  0  0  0  0
  -11.1999   -0.0000    0.0000 N   0  0  0  1  0  0  0  0  0  0  0  0
  -12.0001   -1.3857    0.0000 C   0  0  0  0  0  0  0  0  0  0  0  0
  -13.6000   -1.3857    0.0000 H   0  0  0  0  0  0  0  0  0  0  0  0
  -11.1999   -2.7713    0.0000 C   0  0  0  0  0  0  0  0  0  0  0  0
  -12.0001   -4.1569    0.0000 H   0  0  0  0  0  0  0  0  0  0  0  0
   -9.6000   -2.7713    0.0000 C   0  0  0  0  0  0  0  0  0  0  0  0
   -8.8001   -4.1569    0.0000 H   0  0  0  0  0  0  0  0  0  0  0  0
   -6.4000   -2.7713    0.0000 O   0  0  0  0  0  0  0  0  0  0  0  0
   -4.8001   -0.0000    0.0000 C   0  0  0  0  0  0  0  0  0  0  0  0
   -3.2000   -0.0000    0.0000 C   0  0  0  0  0  0  0  0  0  0  0  0
   -1.6001   -0.0000    0.0000 C   0  0  0  0  0  0  0  0  0  0  0  0
    0.0001   -0.0000    0.0000 C   0  0  0  0  0  0  0  0  0  0  0  0
    1.5999   -0.0000    0.0000 C   0  0  0  0  0  0  0  0  0  0  0  0
    3.2001   -0.0000    0.0000 C   0  0  0  0  0  0  0  0  0  0  0  0
    4.8000   -0.0000    0.0000 C   0  0  0  0  0  0  0  0  0  0  0  0
    6.4001   -0.0000    0.0000 C   0  0  0  0  0  0  0  0  0  0  0  0
    8.0000   -0.0000    0.0000 H   0  0  0  0  0  0  0  0  0  0  0  0
    7.2001    1.3857    0.0000 H   0  0  0  0  0  0  0  0  0  0  0  0
    7.2001   -1.3857    0.0000 H   0  0  0  0  0  0  0  0  0  0  0  0
    4.8000    1.6000    0.0000 H   0  0  0  0  0  0  0  0  0  0  0  0
    4.8000   -1.6000    0.0000 H   0  0  0  0  0  0  0  0  0  0  0  0
    3.2001    1.6000    0.0000 H   0  0  0  0  0  0  0  0  0  0  0  0
    3.2001   -1.6000    0.0000 H   0  0  0  0  0  0  0  0  0  0  0  0
    1.5999    1.6000    0.0000 H   0  0  0  0  0  0  0  0  0  0  0  0
    1.5999   -1.6000    0.0000 H   0  0  0  0  0  0  0  0  0  0  0  0
    0.0001    1.6000    0.0000 H   0  0  0  0  0  0  0  0  0  0  0  0
    0.0001   -1.6000    0.0000 H   0  0  0  0  0  0  0  0  0  0  0  0
   -1.6001    1.6000    0.0000 H   0  0  0  0  0  0  0  0  0  0  0  0
   -1.6001   -1.6000    0.0000 H   0  0  0  0  0  0  0  0  0  0  0  0
   -3.2000    1.6000    0.0000 H   0  0  0  0  0  0  0  0  0  0  0  0
   -3.2000   -1.6000    0.0000 H   0  0  0  0  0  0  0  0  0  0  0  0
   -4.8001    1.6000    0.0000 H   0  0  0  0  0  0  0  0  0  0  0  0
   -4.8001   -1.6000    0.0000 H   0  0  0  0  0  0  0  0  0  0  0  0
  1  2  1  0  0  0  0
  2  3  1  0  0  0  0
  3  4  4  0  0  0  0
  4  5  1  0  0  0  0
  4  6  4  0  0  0  0
  6  7  4  0  0  0  0
  7  8  1  0  0  0  0
  7  9  4  0  0  0  0
  9 10  1  0  0  0  0
  9 11  4  0  0  0  0
 11  3  4  0  0  0  0
 11 12  1  0  0  0  0
  2 13  2  0  0  0  0
  1 14  1  0  0  0  0
 14 15  1  0  0  0  0
 15 16  1  0  0  0  0
 16 17  1  0  0  0  0
 17 18  1  0  0  0  0
 18 19  1  0  0  0  0
 19 20  1  0  0  0  0
 20 21  1  0  0  0  0
 21 22  1  0  0  0  0
 21 23  1  0  0  0  0
 21 24  1  0  0  0  0
 20 25  1  0  0  0  0
 20 26  1  0  0  0  0
 19 27  1  0  0  0  0
 19 28  1  0  0  0  0
 18 29  1  0  0  0  0
 18 30  1  0  0  0  0
 17 31  1  0  0  0  0
 17 32  1  0  0  0  0
 16 33  1  0  0  0  0
 16 34  1  0  0  0  0
 15 35  1  0  0  0  0
 15 36  1  0  0  0  0
 14 37  1  0  0  0  0
 14 38  1  0  0  0  0
M  END
> <CAS>
70136-02-6

> <NAME>
3-Pyridinecarboxylic acid, octyl ester

> <preferred_name>
3-Pyridinecarboxylic acid, octyl ester

> <iupac>
octyl pyridine-3-carboxylate

> <SMILES>
CCCCCCCCOC(=O)c1ccc[n]c1

> <Canonical_QSARr>
CCCCCCCCOC(=O)c1ccc[n]c1

> <InChI_Code_QSARr>
InChI=1S/C14H21NO2/c1-2-3-4-5-6-7-11-17-14(16)13-9-8-10-15-12-13/h8-10,12H,2-7,11H2,1H3

> <InChI Key_QSARr>
TYBQVEHLLOHMLT-UHFFFAOYSA-N

> <Salt_Solvent>
?

> <WS Temperature>
25

> <WS Reference>
BEILSTEIN

> <dsstox_substance_id>
DTXSID10220414

> <LogMolar>
-3.0929

$$$$
70424-70-3
  -INDIGO-01081615412D

 22 23  0  0  0  0  0  0  0  0999 V2000
    3.2000    0.0000    0.0000 C   0  0  0  0  0  0  0  0  0  0  0  0
    4.8000    0.0000    0.0000 Cl  0  0  0  0  0  0  0  0  0  0  0  0
    2.4000    1.3856    0.0000 C   0  0  0  0  0  0  0  0  0  0  0  0
    3.2000    2.7713    0.0000 Cl  0  0  0  0  0  0  0  0  0  0  0  0
    0.8001    1.3856    0.0000 C   0  0  0  0  0  0  0  0  0  0  0  0
    0.0001    2.7713    0.0000 H   0  0  0  0  0  0  0  0  0  0  0  0
    0.0001    0.0000    0.0000 C   0  0  0  0  0  0  0  0  0  0  0  0
   -1.6001   -0.0000    0.0000 C   0  0  0  0  0  0  0  0  0  0  0  0
   -2.4001    1.3856    0.0000 C   0  0  0  0  0  0  0  0  0  0  0  0
   -1.6001    2.7713    0.0000 H   0  0  0  0  0  0  0  0  0  0  0  0
   -4.0000    1.3856    0.0000 C   0  0  0  0  0  0  0  0  0  0  0  0
   -4.8000    2.7713    0.0000 Cl  0  0  0  0  0  0  0  0  0  0  0  0
   -4.8000   -0.0000    0.0000 C   0  0  0  0  0  0  0  0  0  0  0  0
   -6.4000   -0.0000    0.0000 H   0  0  0  0  0  0  0  0  0  0  0  0
   -4.0000   -1.3856    0.0000 C   0  0  0  0  0  0  0  0  0  0  0  0
   -4.8000   -2.7713    0.0000 H   0  0  0  0  0  0  0  0  0  0  0  0
   -2.4001   -1.3856    0.0000 C   0  0  0  0  0  0  0  0  0  0  0  0
   -1.6001   -2.7713    0.0000 Cl  0  0  0  0  0  0  0  0  0  0  0  0
    0.8001   -1.3856    0.0000 C   0  0  0  0  0  0  0  0  0  0  0  0
    0.0001   -2.7713    0.0000 H   0  0  0  0  0  0  0  0  0  0  0  0
    2.4000   -1.3856    0.0000 C   0  0  0  0  0  0  0  0  0  0  0  0
    3.2000   -2.7713    0.0000 Cl  0  0  0  0  0  0  0  0  0  0  0  0
  1  2  1  0  0  0  0
  1  3  4  0  0  0  0
  3  4  1  0  0  0  0
  3  5  4  0  0  0  0
  5  6  1  0  0  0  0
  5  7  4  0  0  0  0
  7  8  1  0  0  0  0
  8  9  4  0  0  0  0
  9 10  1  0  0  0  0
  9 11  4  0  0  0  0
 11 12  1  0  0  0  0
 11 13  4  0  0  0  0
 13 14  1  0  0  0  0
 13 15  4  0  0  0  0
 15 16  1  0  0  0  0
 15 17  4  0  0  0  0
 17  8  4  0  0  0  0
 17 18  1  0  0  0  0
  7 19  4  0  0  0  0
 19 20  1  0  0  0  0
 19 21  4  0  0  0  0
 21  1  4  0  0  0  0
 21 22  1  0  0  0  0
M  END
> <CAS>
70424-70-3

> <NAME>
2',3,4,5,5'-Pentachlorobiphenyl

> <preferred_name>
2,3',4',5,5'-Pentachlorobiphenyl

> <iupac>
1,2,3-trichloro-5-(2,5-dichlorophenyl)benzene

> <SMILES>
Clc1cc(-c2cc(Cl)c(Cl)c(Cl)c2)c(Cl)cc1

> <Canonical_QSARr>
Clc1cc(-c2cc(Cl)c(Cl)c(Cl)c2)c(Cl)cc1

> <InChI_Code_QSARr>
InChI=1S/C12H5Cl5/c13-7-1-2-9(14)8(5-7)6-3-10(15)12(17)11(16)4-6/h1-5H

> <InChI Key_QSARr>
PIVBPZFQXKMHBD-UHFFFAOYSA-N

> <Salt_Solvent>
?

> <WS Temperature>
20

> <WS Reference>
YALKOWSKY,SH & DANNENFELSER,RM (1992)

> <dsstox_substance_id>
DTXSID0074213

> <LogMolar>
-7.3149

$$$$
70476-82-3
  -INDIGO-01081615412D

 60 62  0  0  0  0  0  0  0  0999 V2000
   -0.0000   -0.0001    0.0000 C   0  0  0  0  0  0  0  0  0  0  0  0
    0.8001    1.3856    0.0000 C   0  0  0  0  0  0  0  0  0  0  0  0
    2.4001    1.3856    0.0000 N   0  0  0  0  0  0  0  0  0  0  0  0
    3.1999    2.7714    0.0000 C   0  0  0  0  0  0  0  0  0  0  0  0
    4.0001    4.1569    0.0000 C   0  0  0  0  0  0  0  0  0  0  0  0
    4.7999    5.5426    0.0000 N   0  0  0  0  0  0  0  0  0  0  0  0
    6.3999    5.5426    0.0000 C   0  0  0  0  0  0  0  0  0  0  0  0
    7.9999    5.5426    0.0000 C   0  0  0  0  0  0  0  0  0  0  0  0
    9.5998    5.5426    0.0000 O   0  0  0  0  0  0  0  0  0  0  0  0
   10.4000    6.9283    0.0000 H   0  0  0  0  0  0  0  0  0  0  0  0
    7.9999    7.1426    0.0000 H   0  0  0  0  0  0  0  0  0  0  0  0
    7.9999    3.9426    0.0000 H   0  0  0  0  0  0  0  0  0  0  0  0
    6.3999    7.1426    0.0000 H   0  0  0  0  0  0  0  0  0  0  0  0
    6.3999    3.9426    0.0000 H   0  0  0  0  0  0  0  0  0  0  0  0
    4.0001    6.9283    0.0000 H   0  0  0  0  0  0  0  0  0  0  0  0
    5.3858    3.3569    0.0000 H   0  0  0  0  0  0  0  0  0  0  0  0
    2.6144    4.9569    0.0000 H   0  0  0  0  0  0  0  0  0  0  0  0
    4.5856    1.9714    0.0000 H   0  0  0  0  0  0  0  0  0  0  0  0
    1.8143    3.5714    0.0000 H   0  0  0  0  0  0  0  0  0  0  0  0
    3.1999   -0.0001    0.0000 H   0  0  0  0  0  0  0  0  0  0  0  0
   -0.0000    2.7714    0.0000 C   0  0  0  0  0  0  0  0  0  0  0  0
    0.8001    4.1569    0.0000 H   0  0  0  0  0  0  0  0  0  0  0  0
   -1.6000    2.7714    0.0000 C   0  0  0  0  0  0  0  0  0  0  0  0
   -2.4001    4.1569    0.0000 H   0  0  0  0  0  0  0  0  0  0  0  0
   -2.4001    1.3856    0.0000 C   0  0  0  0  0  0  0  0  0  0  0  0
   -4.0001    1.3856    0.0000 N   0  0  0  0  0  0  0  0  0  0  0  0
   -4.7999    2.7714    0.0000 C   0  0  0  0  0  0  0  0  0  0  0  0
   -5.6001    4.1569    0.0000 C   0  0  0  0  0  0  0  0  0  0  0  0
   -6.3999    5.5426    0.0000 N   0  0  0  0  0  0  0  0  0  0  0  0
   -7.9999    5.5426    0.0000 C   0  0  0  0  0  0  0  0  0  0  0  0
   -9.5999    5.5426    0.0000 C   0  0  0  0  0  0  0  0  0  0  0  0
  -11.1998    5.5426    0.0000 O   0  0  0  0  0  0  0  0  0  0  0  0
  -12.0000    6.9283    0.0000 H   0  0  0  0  0  0  0  0  0  0  0  0
   -9.5999    7.1426    0.0000 H   0  0  0  0  0  0  0  0  0  0  0  0
   -9.5999    3.9426    0.0000 H   0  0  0  0  0  0  0  0  0  0  0  0
   -7.9999    7.1426    0.0000 H   0  0  0  0  0  0  0  0  0  0  0  0
   -7.9999    3.9426    0.0000 H   0  0  0  0  0  0  0  0  0  0  0  0
   -5.6001    6.9283    0.0000 H   0  0  0  0  0  0  0  0  0  0  0  0
   -6.9858    3.3569    0.0000 H   0  0  0  0  0  0  0  0  0  0  0  0
   -4.2144    4.9569    0.0000 H   0  0  0  0  0  0  0  0  0  0  0  0
   -6.1856    1.9714    0.0000 H   0  0  0  0  0  0  0  0  0  0  0  0
   -3.4143    3.5714    0.0000 H   0  0  0  0  0  0  0  0  0  0  0  0
   -4.7999   -0.0001    0.0000 H   0  0  0  0  0  0  0  0  0  0  0  0
   -1.6000   -0.0001    0.0000 C   0  0  0  0  0  0  0  0  0  0  0  0
   -2.4001   -1.3856    0.0000 C   0  0  0  0  0  0  0  0  0  0  0  0
   -4.0001   -1.3856    0.0000 O   0  0  0  0  0  0  0  0  0  0  0  0
   -1.6000   -2.7713    0.0000 C   0  0  0  0  0  0  0  0  0  0  0  0
   -2.4001   -4.1570    0.0000 C   0  0  0  0  0  0  0  0  0  0  0  0
   -1.6000   -5.5425    0.0000 C   0  0  0  0  0  0  0  0  0  0  0  0
   -0.0000   -5.5425    0.0000 C   0  0  0  0  0  0  0  0  0  0  0  0
    0.8001   -4.1570    0.0000 C   0  0  0  0  0  0  0  0  0  0  0  0
    2.4001   -4.1570    0.0000 O   0  0  0  0  0  0  0  0  0  0  0  0
    3.1999   -5.5425    0.0000 H   0  0  0  0  0  0  0  0  0  0  0  0
   -0.0000   -2.7713    0.0000 C   0  0  0  0  0  0  0  0  0  0  0  0
    0.8001   -1.3856    0.0000 C   0  0  0  0  0  0  0  0  0  0  0  0
    2.4001   -1.3856    0.0000 O   0  0  0  0  0  0  0  0  0  0  0  0
    0.8001   -6.9282    0.0000 H   0  0  0  0  0  0  0  0  0  0  0  0
   -2.4001   -6.9282    0.0000 H   0  0  0  0  0  0  0  0  0  0  0  0
   -4.0001   -4.1570    0.0000 O   0  0  0  0  0  0  0  0  0  0  0  0
   -4.7999   -5.5425    0.0000 H   0  0  0  0  0  0  0  0  0  0  0  0
  1  2  4  0  0  0  0
  2  3  1  0  0  0  0
  3  4  1  0  0  0  0
  4  5  1  0  0  0  0
  5  6  1  0  0  0  0
  6  7  1  0  0  0  0
  7  8  1  0  0  0  0
  8  9  1  0  0  0  0
  9 10  1  0  0  0  0
  8 11  1  0  0  0  0
  8 12  1  0  0  0  0
  7 13  1  0  0  0  0
  7 14  1  0  0  0  0
  6 15  1  0  0  0  0
  5 16  1  0  0  0  0
  5 17  1  0  0  0  0
  4 18  1  0  0  0  0
  4 19  1  0  0  0  0
  3 20  1  0  0  0  0
  2 21  4  0  0  0  0
 21 22  1  0  0  0  0
 21 23  4  0  0  0  0
 23 24  1  0  0  0  0
 23 25  4  0  0  0  0
 25 26  1  0  0  0  0
 26 27  1  0  0  0  0
 27 28  1  0  0  0  0
 28 29  1  0  0  0  0
 29 30  1  0  0  0  0
 30 31  1  0  0  0  0
 31 32  1  0  0  0  0
 32 33  1  0  0  0  0
 31 34  1  0  0  0  0
 31 35  1  0  0  0  0
 30 36  1  0  0  0  0
 30 37  1  0  0  0  0
 29 38  1  0  0  0  0
 28 39  1  0  0  0  0
 28 40  1  0  0  0  0
 27 41  1  0  0  0  0
 27 42  1  0  0  0  0
 26 43  1  0  0  0  0
 25 44  4  0  0  0  0
 44  1  4  0  0  0  0
 44 45  1  0  0  0  0
 45 46  2  0  0  0  0
 45 47  1  0  0  0  0
 47 48  4  0  0  0  0
 48 49  4  0  0  0  0
 49 50  4  0  0  0  0
 50 51  4  0  0  0  0
 51 52  1  0  0  0  0
 52 53  1  0  0  0  0
 51 54  4  0  0  0  0
 54 47  4  0  0  0  0
 54 55  1  0  0  0  0
 55  1  1  0  0  0  0
 55 56  2  0  0  0  0
 50 57  1  0  0  0  0
 49 58  1  0  0  0  0
 48 59  1  0  0  0  0
 59 60  1  0  0  0  0
M  END
> <CAS>
70476-82-3

> <NAME>
Novantrone

> <preferred_name>
Mitoxantrone dihydrochloride

> <iupac>
1,4-dihydroxy-5,8-bis({2-[(2-hydroxyethyl)amino]ethyl}amino)anthracene-9,10-dione dihydrochloride

> <SMILES>
Cl.Cl.Oc1ccc(O)c2c1C(=O)c1c(c(ccc1NCCNCCO)NCCNCCO)C2=O

> <Canonical_QSARr>
Oc1ccc(O)c2c1C(=O)c1c(c(ccc1NCCNCCO)NCCNCCO)C2=O

> <InChI_Code_QSARr>
InChI=1S/C22H28N4O6/c27-11-9-23-5-7-25-13-1-2-14(26-8-6-24-10-12-28)18-17(13)21(31)19-15(29)3-4-16(30)20(19)22(18)32/h1-4,23-30H,5-12H2

> <InChI Key_QSARr>
KKZJGLLVHKMTCM-UHFFFAOYSA-N

> <Salt_Solvent>
Cl.Cl

> <WS Temperature>


> <WS Reference>
NCI INVEST. DRUG web-site

> <dsstox_substance_id>
DTXSID0045173

> <LogMolar>
-1.8388

$$$$
71815-46-8
  -INDIGO-01081615412D

  9  8  0  0  0  0  0  0  0  0999 V2000
    0.0000   -1.6000    0.0000 Br  0  0  0  0  0  0  0  0  0  0  0  0
    0.0000    0.0000    0.0000 C   0  0  0  0  0  0  0  0  0  0  0  0
   -1.3856    0.8000    0.0000 C   0  0  0  0  0  0  0  0  0  0  0  0
   -2.7713    0.0000    0.0000 Br  0  0  0  0  0  0  0  0  0  0  0  0
   -1.3856    2.4000    0.0000 Br  0  0  0  0  0  0  0  0  0  0  0  0
    1.3856    0.8000    0.0000 C   0  0  0  0  0  0  0  0  0  0  0  0
    1.3856    2.4000    0.0000 O   0  0  0  0  0  0  0  0  0  0  0  0
    2.7713    0.0000    0.0000 O   0  0  0  0  0  0  0  0  0  0  0  0
    4.1569    0.8000    0.0000 H   0  0  0  0  0  0  0  0  0  0  0  0
  1  2  1  0  0  0  0
  2  3  2  0  0  0  0
  3  4  1  0  0  0  0
  3  5  1  0  0  0  0
  2  6  1  0  0  0  0
  6  7  2  0  0  0  0
  6  8  1  0  0  0  0
  8  9  1  0  0  0  0
M  END
> <CAS>
71815-46-8

> <NAME>
2-Propenoic acid, 2,3,3-tribromo-

> <preferred_name>
PUBCHEM_14227575

> <iupac>
C3HBr3O2

> <SMILES>
OC(=O)C(Br)=C(Br)Br

> <Canonical_QSARr>
OC(=O)C(Br)=C(Br)Br

> <InChI_Code_QSARr>
InChI=1S/C3HBr3O2/c4-1(2(5)6)3(7)8/h(H,7,8)

> <InChI Key_QSARr>
UKFXMSBXHCEXIK-UHFFFAOYSA-N

> <Salt_Solvent>
?

> <WS Temperature>
20

> <WS Reference>
BEILSTEIN

> <dsstox_substance_id>
DTXSID00557706

> <LogMolar>
-1.3593

$$$$
72391-46-9, 84332-86-5
  -INDIGO-01081615412D

 32 33  0  0  0  0  0  0  0  0999 V2000
    3.7160   -4.4126    0.0000 C   0  0  0  0  0  0  0  0  0  0  0  0
    2.4217   -3.4721    0.0000 C   0  0  0  0  0  0  0  0  0  0  0  0
    1.1271   -2.5317    0.0000 O   0  0  0  0  0  0  0  0  0  0  0  0
    1.2945   -0.9405    0.0000 C   0  0  0  0  0  0  0  0  0  0  0  0
    2.7562   -0.2896    0.0000 O   0  0  0  0  0  0  0  0  0  0  0  0
   -0.0001    0.0000    0.0000 C   0  0  0  0  0  0  0  0  0  0  0  0
   -1.0707    1.1890    0.0000 O   0  0  0  0  0  0  0  0  0  0  0  0
   -2.5324    0.5382    0.0000 C   0  0  0  0  0  0  0  0  0  0  0  0
   -3.9179    1.3383    0.0000 O   0  0  0  0  0  0  0  0  0  0  0  0
   -2.3650   -1.0530    0.0000 N   0  0  0  0  0  0  0  0  0  0  0  0
   -3.5541   -2.1237    0.0000 C   0  0  0  0  0  0  0  0  0  0  0  0
   -5.0757   -1.6291    0.0000 C   0  0  0  0  0  0  0  0  0  0  0  0
   -5.4085   -0.0641    0.0000 H   0  0  0  0  0  0  0  0  0  0  0  0
   -6.2648   -2.6998    0.0000 C   0  0  0  0  0  0  0  0  0  0  0  0
   -7.7865   -2.2054    0.0000 Cl  0  0  0  0  0  0  0  0  0  0  0  0
   -5.9321   -4.2648    0.0000 C   0  0  0  0  0  0  0  0  0  0  0  0
   -7.1212   -5.3354    0.0000 H   0  0  0  0  0  0  0  0  0  0  0  0
   -4.4105   -4.7592    0.0000 C   0  0  0  0  0  0  0  0  0  0  0  0
   -4.0777   -6.3243    0.0000 Cl  0  0  0  0  0  0  0  0  0  0  0  0
   -3.2214   -3.6886    0.0000 C   0  0  0  0  0  0  0  0  0  0  0  0
   -1.6997   -4.1831    0.0000 H   0  0  0  0  0  0  0  0  0  0  0  0
   -0.8000   -1.3857    0.0000 C   0  0  0  0  0  0  0  0  0  0  0  0
   -0.1492   -2.8473    0.0000 O   0  0  0  0  0  0  0  0  0  0  0  0
    1.0706    1.1890    0.0000 C   0  0  0  0  0  0  0  0  0  0  0  0
    2.1412    2.3781    0.0000 H   0  0  0  0  0  0  0  0  0  0  0  0
    2.6357    0.8564    0.0000 H   0  0  0  0  0  0  0  0  0  0  0  0
    0.5762    2.7107    0.0000 H   0  0  0  0  0  0  0  0  0  0  0  0
    1.4812   -4.7665    0.0000 H   0  0  0  0  0  0  0  0  0  0  0  0
    3.3621   -2.1777    0.0000 H   0  0  0  0  0  0  0  0  0  0  0  0
    5.0106   -5.3530    0.0000 H   0  0  0  0  0  0  0  0  0  0  0  0
    3.5489   -6.0039    0.0000 H   0  0  0  0  0  0  0  0  0  0  0  0
    5.1777   -3.7618    0.0000 H   0  0  0  0  0  0  0  0  0  0  0  0
  1  2  1  0  0  0  0
  2  3  1  0  0  0  0
  3  4  1  0  0  0  0
  4  5  2  0  0  0  0
  4  6  1  0  0  0  0
  6  7  1  0  0  0  0
  7  8  1  0  0  0  0
  8  9  2  0  0  0  0
  8 10  1  0  0  0  0
 10 11  1  0  0  0  0
 11 12  4  0  0  0  0
 12 13  1  0  0  0  0
 12 14  4  0  0  0  0
 14 15  1  0  0  0  0
 14 16  4  0  0  0  0
 16 17  1  0  0  0  0
 16 18  4  0  0  0  0
 18 19  1  0  0  0  0
 18 20  4  0  0  0  0
 20 11  4  0  0  0  0
 20 21  1  0  0  0  0
 10 22  1  0  0  0  0
 22  6  1  0  0  0  0
 22 23  2  0  0  0  0
  6 24  1  0  0  0  0
 24 25  1  0  0  0  0
 24 26  1  0  0  0  0
 24 27  1  0  0  0  0
  2 28  1  0  0  0  0
  2 29  1  0  0  0  0
  1 30  1  0  0  0  0
  1 31  1  0  0  0  0
  1 32  1  0  0  0  0
M  END
> <CAS>
72391-46-9, 84332-86-5

> <NAME>
CHLOZOLINATE, Chlozolinate

> <preferred_name>
Chlozolinate

> <iupac>
ethyl 3-(3,5-dichlorophenyl)-5-methyl-2,4-dioxo-1,3-oxazolidine-5-carboxylate

> <SMILES>
CCOC(=O)C1(C)OC(=O)N(c2cc(Cl)cc(Cl)c2)C1=O

> <Canonical_QSARr>
CCOC(=O)C1(C)OC(=O)N(c2cc(Cl)cc(Cl)c2)C1=O

> <InChI_Code_QSARr>
InChI=1S/C13H11Cl2NO5/c1-3-20-11(18)13(2)10(17)16(12(19)21-13)9-5-7(14)4-8(15)6-9/h4-6H,3H2,1-2H3

> <InChI Key_QSARr>
IGUYEXXAGBDLLX-UHFFFAOYSA-N

> <Salt_Solvent>
?

> <WS Temperature>
25

> <WS Reference>
TOMLIN,C (1994)

> <dsstox_substance_id>
DTXSID5058197

> <LogMolar>
-4.61825

$$$$
72850-64-7
  -INDIGO-01081615412D

 27 28  0  0  0  0  0  0  0  0999 V2000
    0.0001   -0.0000    0.0000 C   0  0  0  0  0  0  0  0  0  0  0  0
    1.6001   -0.0000    0.0000 C   0  0  0  0  0  0  0  0  0  0  0  0
    3.1999   -0.0000    0.0000 O   0  0  0  0  0  0  0  0  0  0  0  0
    4.0000   -1.3857    0.0000 C   0  0  0  0  0  0  0  0  0  0  0  0
    3.1999   -2.7712    0.0000 O   0  0  0  0  0  0  0  0  0  0  0  0
    5.6001   -1.3857    0.0000 C   0  0  0  0  0  0  0  0  0  0  0  0
    6.5404   -2.6801    0.0000 S   0  0  0  1  0  0  0  0  0  0  0  0
    8.0622   -2.1856    0.0000 C   0  0  0  0  0  0  0  0  0  0  0  0
    9.3566   -3.1261    0.0000 Cl  0  0  0  0  0  0  0  0  0  0  0  0
    8.0622   -0.5856    0.0000 N   0  0  0  1  0  0  0  0  0  0  0  0
    6.5404   -0.0912    0.0000 C   0  0  0  0  0  0  0  0  0  0  0  0
    6.0459    1.4304    0.0000 C   0  0  0  0  0  0  0  0  0  0  0  0
    7.1167    2.6195    0.0000 F   0  0  0  0  0  0  0  0  0  0  0  0
    5.5517    2.9522    0.0000 F   0  0  0  0  0  0  0  0  0  0  0  0
    4.4809    1.7631    0.0000 F   0  0  0  0  0  0  0  0  0  0  0  0
    1.6001   -1.6000    0.0000 H   0  0  0  0  0  0  0  0  0  0  0  0
    1.5999    1.6000    0.0000 H   0  0  0  0  0  0  0  0  0  0  0  0
   -0.8000    1.3856    0.0000 C   0  0  0  0  0  0  0  0  0  0  0  0
    0.0001    2.7713    0.0000 H   0  0  0  0  0  0  0  0  0  0  0  0
   -2.4001    1.3856    0.0000 C   0  0  0  0  0  0  0  0  0  0  0  0
   -3.2000    2.7713    0.0000 H   0  0  0  0  0  0  0  0  0  0  0  0
   -3.2000   -0.0000    0.0000 C   0  0  0  0  0  0  0  0  0  0  0  0
   -4.8000   -0.0000    0.0000 H   0  0  0  0  0  0  0  0  0  0  0  0
   -2.4001   -1.3857    0.0000 C   0  0  0  0  0  0  0  0  0  0  0  0
   -3.2000   -2.7712    0.0000 H   0  0  0  0  0  0  0  0  0  0  0  0
   -0.8000   -1.3857    0.0000 C   0  0  0  0  0  0  0  0  0  0  0  0
    0.0001   -2.7712    0.0000 H   0  0  0  0  0  0  0  0  0  0  0  0
  1  2  1  0  0  0  0
  2  3  1  0  0  0  0
  3  4  1  0  0  0  0
  4  5  2  0  0  0  0
  4  6  1  0  0  0  0
  6  7  4  0  0  0  0
  7  8  4  0  0  0  0
  8  9  1  0  0  0  0
  8 10  4  0  0  0  0
 10 11  4  0  0  0  0
 11  6  4  0  0  0  0
 11 12  1  0  0  0  0
 12 13  1  0  0  0  0
 12 14  1  0  0  0  0
 12 15  1  0  0  0  0
  2 16  1  0  0  0  0
  2 17  1  0  0  0  0
  1 18  4  0  0  0  0
 18 19  1  0  0  0  0
 18 20  4  0  0  0  0
 20 21  1  0  0  0  0
 20 22  4  0  0  0  0
 22 23  1  0  0  0  0
 22 24  4  0  0  0  0
 24 25  1  0  0  0  0
 24 26  4  0  0  0  0
 26  1  4  0  0  0  0
 26 27  1  0  0  0  0
M  END
> <CAS>
72850-64-7

> <NAME>
Flurazole

> <preferred_name>
Flurazole

> <iupac>
benzyl 2-chloro-4-(trifluoromethyl)-1,3-thiazole-5-carboxylate

> <SMILES>
O=C(OCc1ccccc1)c1[s]c(Cl)[n]c1C(F)(F)F

> <Canonical_QSARr>
O=C(OCc1ccccc1)c1[s]c(Cl)[n]c1C(F)(F)F

> <InChI_Code_QSARr>
InChI=1S/C12H7ClF3NO2S/c13-11-17-9(12(14,15)16)8(20-11)10(18)19-6-7-4-2-1-3-5-7/h1-5H,6H2

> <InChI Key_QSARr>
MKQSWTQPLLCSOB-UHFFFAOYSA-N

> <Salt_Solvent>
?

> <WS Temperature>
25

> <WS Reference>
TOMLIN,C (1994)

> <dsstox_substance_id>
DTXSID5052468

> <LogMolar>
-5.8085

$$$$
73575-53-8
  -INDIGO-01081615412D

 22 23  0  0  0  0  0  0  0  0999 V2000
    0.0001   -2.7713    0.0000 Cl  0  0  0  0  0  0  0  0  0  0  0  0
    0.8001   -1.3856    0.0000 C   0  0  0  0  0  0  0  0  0  0  0  0
    2.4000   -1.3856    0.0000 C   0  0  0  0  0  0  0  0  0  0  0  0
    3.2000   -2.7713    0.0000 H   0  0  0  0  0  0  0  0  0  0  0  0
    3.2000    0.0000    0.0000 C   0  0  0  0  0  0  0  0  0  0  0  0
    4.8000    0.0000    0.0000 Cl  0  0  0  0  0  0  0  0  0  0  0  0
    2.4000    1.3856    0.0000 C   0  0  0  0  0  0  0  0  0  0  0  0
    3.2000    2.7713    0.0000 Cl  0  0  0  0  0  0  0  0  0  0  0  0
    0.8001    1.3856    0.0000 C   0  0  0  0  0  0  0  0  0  0  0  0
    0.0001    2.7713    0.0000 H   0  0  0  0  0  0  0  0  0  0  0  0
    0.0001    0.0000    0.0000 C   0  0  0  0  0  0  0  0  0  0  0  0
   -1.6001    0.0000    0.0000 C   0  0  0  0  0  0  0  0  0  0  0  0
   -2.4001    1.3856    0.0000 C   0  0  0  0  0  0  0  0  0  0  0  0
   -1.6001    2.7713    0.0000 H   0  0  0  0  0  0  0  0  0  0  0  0
   -4.0000    1.3856    0.0000 C   0  0  0  0  0  0  0  0  0  0  0  0
   -4.8000    2.7713    0.0000 Cl  0  0  0  0  0  0  0  0  0  0  0  0
   -4.8000   -0.0000    0.0000 C   0  0  0  0  0  0  0  0  0  0  0  0
   -6.4000   -0.0000    0.0000 H   0  0  0  0  0  0  0  0  0  0  0  0
   -4.0000   -1.3856    0.0000 C   0  0  0  0  0  0  0  0  0  0  0  0
   -4.8000   -2.7713    0.0000 H   0  0  0  0  0  0  0  0  0  0  0  0
   -2.4001   -1.3856    0.0000 C   0  0  0  0  0  0  0  0  0  0  0  0
   -1.6001   -2.7713    0.0000 H   0  0  0  0  0  0  0  0  0  0  0  0
  1  2  1  0  0  0  0
  2  3  4  0  0  0  0
  3  4  1  0  0  0  0
  3  5  4  0  0  0  0
  5  6  1  0  0  0  0
  5  7  4  0  0  0  0
  7  8  1  0  0  0  0
  7  9  4  0  0  0  0
  9 10  1  0  0  0  0
  9 11  4  0  0  0  0
 11  2  4  0  0  0  0
 11 12  1  0  0  0  0
 12 13  4  0  0  0  0
 13 14  1  0  0  0  0
 13 15  4  0  0  0  0
 15 16  1  0  0  0  0
 15 17  4  0  0  0  0
 17 18  1  0  0  0  0
 17 19  4  0  0  0  0
 19 20  1  0  0  0  0
 19 21  4  0  0  0  0
 21 12  4  0  0  0  0
 21 22  1  0  0  0  0
M  END
> <CAS>
73575-53-8

> <NAME>
2,3',4,5-TETRACHLOROBIPHENYL

> <preferred_name>
2,3',4,5-Tetrachlorobiphenyl

> <iupac>
1,2,4-trichloro-5-(3-chlorophenyl)benzene

> <SMILES>
Clc1cc(ccc1)-c1cc(Cl)c(Cl)cc1Cl

> <Canonical_QSARr>
Clc1cc(ccc1)-c1cc(Cl)c(Cl)cc1Cl

> <InChI_Code_QSARr>
InChI=1S/C12H6Cl4/c13-8-3-1-2-7(4-8)9-5-11(15)12(16)6-10(9)14/h1-6H

> <InChI Key_QSARr>
LQEGJNOKOZHBBZ-UHFFFAOYSA-N

> <Salt_Solvent>
?

> <WS Temperature>
25

> <WS Reference>
PATIL,GS (1991)

> <dsstox_substance_id>
DTXSID0074215

> <LogMolar>
-7.1299

$$$$
73937-25-4
  -INDIGO-01081615412D

 20 20  0  0  0  0  0  0  0  0999 V2000
   -0.0001    3.2000    0.0000 N   0  0  0  1  0  0  0  0  0  0  0  0
   -1.3857    2.3999    0.0000 C   0  0  0  0  0  0  0  0  0  0  0  0
   -2.7713    3.2000    0.0000 C   0  0  0  0  0  0  0  0  0  0  0  0
   -4.1569    3.9999    0.0000 H   0  0  0  0  0  0  0  0  0  0  0  0
   -2.7713    4.8000    0.0000 H   0  0  0  0  0  0  0  0  0  0  0  0
   -4.1569    2.3999    0.0000 H   0  0  0  0  0  0  0  0  0  0  0  0
   -1.3857    0.7999    0.0000 C   0  0  0  0  0  0  0  0  0  0  0  0
   -2.7713    0.0000    0.0000 H   0  0  0  0  0  0  0  0  0  0  0  0
   -0.0001    0.0000    0.0000 C   0  0  0  0  0  0  0  0  0  0  0  0
   -0.0001   -1.6000    0.0000 C   0  0  0  0  0  0  0  0  0  0  0  0
   -0.0001   -3.2000    0.0000 H   0  0  0  0  0  0  0  0  0  0  0  0
    1.3857   -2.3999    0.0000 H   0  0  0  0  0  0  0  0  0  0  0  0
   -1.3857   -2.4001    0.0000 H   0  0  0  0  0  0  0  0  0  0  0  0
    1.3857    0.7999    0.0000 N   0  0  0  1  0  0  0  0  0  0  0  0
    1.3857    2.4001    0.0000 C   0  0  0  0  0  0  0  0  0  0  0  0
    2.7713    3.2000    0.0000 C   0  0  0  0  0  0  0  0  0  0  0  0
    4.1569    2.4001    0.0000 N   0  0  0  0  0  0  0  0  0  0  0  0
    5.5426    3.2000    0.0000 H   0  0  0  0  0  0  0  0  0  0  0  0
    4.1569    0.8001    0.0000 H   0  0  0  0  0  0  0  0  0  0  0  0
    2.7713    4.8000    0.0000 O   0  0  0  0  0  0  0  0  0  0  0  0
  1  2  4  0  0  0  0
  2  3  1  0  0  0  0
  3  4  1  0  0  0  0
  3  5  1  0  0  0  0
  3  6  1  0  0  0  0
  2  7  4  0  0  0  0
  7  8  1  0  0  0  0
  7  9  4  0  0  0  0
  9 10  1  0  0  0  0
 10 11  1  0  0  0  0
 10 12  1  0  0  0  0
 10 13  1  0  0  0  0
  9 14  4  0  0  0  0
 14 15  4  0  0  0  0
 15  1  4  0  0  0  0
 15 16  1  0  0  0  0
 16 17  1  0  0  0  0
 17 18  1  0  0  0  0
 17 19  1  0  0  0  0
 16 20  2  0  0  0  0
M  END
> <CAS>
73937-25-4

> <NAME>
2-Pyrimidinecarboxamide, 4,6-dimethyl-

> <preferred_name>


> <iupac>


> <SMILES>
Cc1cc(C)[n]c([n]1)C(N)=O

> <Canonical_QSARr>
Cc1cc(C)[n]c([n]1)C(N)=O

> <InChI_Code_QSARr>
InChI=1S/C7H9N3O/c1-4-3-5(2)10-7(9-4)6(8)11/h3H,1-2H3,(H2,8,11)

> <InChI Key_QSARr>
GQSYNOBFTDVBDM-UHFFFAOYSA-N

> <Salt_Solvent>
?

> <WS Temperature>
20

> <WS Reference>
BEILSTEIN

> <dsstox_substance_id>


> <LogMolar>
0.1216

$$$$
74222-97-2
  -INDIGO-01081615412D

 41 42  0  0  0  0  0  0  0  0999 V2000
   -1.3856    0.8001    0.0000 S   0  0  0  0  0  0  0  0  0  0  0  0
   -2.1856   -0.5856    0.0000 O   0  0  0  0  0  0  0  0  0  0  0  0
   -0.5857    2.1856    0.0000 O   0  0  0  0  0  0  0  0  0  0  0  0
   -0.0001   -0.0001    0.0000 C   0  0  0  0  0  0  0  0  0  0  0  0
   -0.0001   -1.6001    0.0000 C   0  0  0  0  0  0  0  0  0  0  0  0
   -1.3856   -2.4000    0.0000 H   0  0  0  0  0  0  0  0  0  0  0  0
    1.3858   -2.4000    0.0000 C   0  0  0  0  0  0  0  0  0  0  0  0
    1.3858   -4.0000    0.0000 H   0  0  0  0  0  0  0  0  0  0  0  0
    2.7713   -1.6001    0.0000 C   0  0  0  0  0  0  0  0  0  0  0  0
    4.1569   -2.4000    0.0000 H   0  0  0  0  0  0  0  0  0  0  0  0
    2.7713   -0.0001    0.0000 C   0  0  0  0  0  0  0  0  0  0  0  0
    4.1569    0.8001    0.0000 H   0  0  0  0  0  0  0  0  0  0  0  0
    1.3858    0.8001    0.0000 C   0  0  0  0  0  0  0  0  0  0  0  0
    1.3855    2.4001    0.0000 C   0  0  0  0  0  0  0  0  0  0  0  0
    2.7713    3.2000    0.0000 O   0  0  0  0  0  0  0  0  0  0  0  0
    2.7713    4.8000    0.0000 C   0  0  0  0  0  0  0  0  0  0  0  0
    2.7713    6.4000    0.0000 H   0  0  0  0  0  0  0  0  0  0  0  0
    4.1569    5.6000    0.0000 H   0  0  0  0  0  0  0  0  0  0  0  0
    1.3855    5.6000    0.0000 H   0  0  0  0  0  0  0  0  0  0  0  0
   -0.0001    3.2000    0.0000 O   0  0  0  0  0  0  0  0  0  0  0  0
   -2.7712    1.6001    0.0000 N   0  0  0  0  0  0  0  0  0  0  0  0
   -4.1570    0.7999    0.0000 C   0  0  0  0  0  0  0  0  0  0  0  0
   -4.1570   -0.8001    0.0000 O   0  0  0  0  0  0  0  0  0  0  0  0
   -5.5426    1.6001    0.0000 N   0  0  0  0  0  0  0  0  0  0  0  0
   -6.9282    0.7999    0.0000 C   0  0  0  0  0  0  0  0  0  0  0  0
   -8.3138    1.6001    0.0000 N   0  0  0  1  0  0  0  0  0  0  0  0
   -9.6996    0.7999    0.0000 C   0  0  0  0  0  0  0  0  0  0  0  0
  -11.0852    1.6001    0.0000 C   0  0  0  0  0  0  0  0  0  0  0  0
  -12.4708    2.4001    0.0000 H   0  0  0  0  0  0  0  0  0  0  0  0
  -11.0852    3.2000    0.0000 H   0  0  0  0  0  0  0  0  0  0  0  0
  -12.4708    0.7999    0.0000 H   0  0  0  0  0  0  0  0  0  0  0  0
   -9.6996   -0.8001    0.0000 C   0  0  0  0  0  0  0  0  0  0  0  0
  -11.0852   -1.6001    0.0000 H   0  0  0  0  0  0  0  0  0  0  0  0
   -8.3138   -1.6001    0.0000 C   0  0  0  0  0  0  0  0  0  0  0  0
   -8.3138   -3.2000    0.0000 C   0  0  0  0  0  0  0  0  0  0  0  0
   -8.3138   -4.8000    0.0000 H   0  0  0  0  0  0  0  0  0  0  0  0
   -9.6996   -4.0000    0.0000 H   0  0  0  0  0  0  0  0  0  0  0  0
   -6.9282   -4.0000    0.0000 H   0  0  0  0  0  0  0  0  0  0  0  0
   -6.9282   -0.8001    0.0000 N   0  0  0  1  0  0  0  0  0  0  0  0
   -5.5426    3.2000    0.0000 H   0  0  0  0  0  0  0  0  0  0  0  0
   -2.7712    3.2000    0.0000 H   0  0  0  0  0  0  0  0  0  0  0  0
  1  2  2  0  0  0  0
  1  3  2  0  0  0  0
  1  4  1  0  0  0  0
  4  5  4  0  0  0  0
  5  6  1  0  0  0  0
  5  7  4  0  0  0  0
  7  8  1  0  0  0  0
  7  9  4  0  0  0  0
  9 10  1  0  0  0  0
  9 11  4  0  0  0  0
 11 12  1  0  0  0  0
 11 13  4  0  0  0  0
 13  4  4  0  0  0  0
 13 14  1  0  0  0  0
 14 15  1  0  0  0  0
 15 16  1  0  0  0  0
 16 17  1  0  0  0  0
 16 18  1  0  0  0  0
 16 19  1  0  0  0  0
 14 20  2  0  0  0  0
  1 21  1  0  0  0  0
 21 22  1  0  0  0  0
 22 23  2  0  0  0  0
 22 24  1  0  0  0  0
 24 25  1  0  0  0  0
 25 26  4  0  0  0  0
 26 27  4  0  0  0  0
 27 28  1  0  0  0  0
 28 29  1  0  0  0  0
 28 30  1  0  0  0  0
 28 31  1  0  0  0  0
 27 32  4  0  0  0  0
 32 33  1  0  0  0  0
 32 34  4  0  0  0  0
 34 35  1  0  0  0  0
 35 36  1  0  0  0  0
 35 37  1  0  0  0  0
 35 38  1  0  0  0  0
 34 39  4  0  0  0  0
 39 25  4  0  0  0  0
 24 40  1  0  0  0  0
 21 41  1  0  0  0  0
M  END
> <CAS>
74222-97-2

> <NAME>
SULFOMETURON METHYL

> <preferred_name>
Sulfometuron-methyl

> <iupac>
methyl 2-{[(4,6-dimethylpyrimidin-2-yl)carbamoyl]sulfamoyl}benzoate

> <SMILES>
COC(=O)c1ccccc1S(=O)(=O)NC(=O)Nc1[n]c(C)cc(C)[n]1

> <Canonical_QSARr>
COC(=O)c1ccccc1S(=O)(=O)NC(=O)Nc1[n]c(C)cc(C)[n]1

> <InChI_Code_QSARr>
InChI=1S/C15H16N4O5S/c1-9-8-10(2)17-14(16-9)18-15(21)19-25(22,23)12-7-5-4-6-11(12)13(20)24-3/h4-8H,1-3H3,(H2,16,17,18,19,21)

> <InChI Key_QSARr>
ZDXMLEQEMNLCQG-UHFFFAOYSA-N

> <Salt_Solvent>
?

> <WS Temperature>
25

> <WS Reference>
TOMLIN,C (2003); pH 7

> <dsstox_substance_id>
DTXSID0034936

> <LogMolar>
-3.1291

$$$$
74472-37-0
  -INDIGO-01081615412D

 22 23  0  0  0  0  0  0  0  0999 V2000
    0.0001    0.0000    0.0000 C   0  0  0  0  0  0  0  0  0  0  0  0
    0.8001   -1.3856    0.0000 C   0  0  0  0  0  0  0  0  0  0  0  0
    0.0001   -2.7713    0.0000 H   0  0  0  0  0  0  0  0  0  0  0  0
    2.4000   -1.3856    0.0000 C   0  0  0  0  0  0  0  0  0  0  0  0
    3.2000   -2.7713    0.0000 Cl  0  0  0  0  0  0  0  0  0  0  0  0
    3.2000    0.0000    0.0000 C   0  0  0  0  0  0  0  0  0  0  0  0
    4.8000    0.0000    0.0000 Cl  0  0  0  0  0  0  0  0  0  0  0  0
    2.4000    1.3856    0.0000 C   0  0  0  0  0  0  0  0  0  0  0  0
    3.2000    2.7713    0.0000 Cl  0  0  0  0  0  0  0  0  0  0  0  0
    0.8001    1.3856    0.0000 C   0  0  0  0  0  0  0  0  0  0  0  0
    0.0001    2.7713    0.0000 Cl  0  0  0  0  0  0  0  0  0  0  0  0
   -1.6001   -0.0000    0.0000 C   0  0  0  0  0  0  0  0  0  0  0  0
   -2.4001    1.3856    0.0000 C   0  0  0  0  0  0  0  0  0  0  0  0
   -1.6001    2.7713    0.0000 H   0  0  0  0  0  0  0  0  0  0  0  0
   -4.0000    1.3856    0.0000 C   0  0  0  0  0  0  0  0  0  0  0  0
   -4.8000    2.7713    0.0000 H   0  0  0  0  0  0  0  0  0  0  0  0
   -4.8000   -0.0000    0.0000 C   0  0  0  0  0  0  0  0  0  0  0  0
   -6.4000   -0.0000    0.0000 Cl  0  0  0  0  0  0  0  0  0  0  0  0
   -4.0000   -1.3856    0.0000 C   0  0  0  0  0  0  0  0  0  0  0  0
   -4.8000   -2.7713    0.0000 H   0  0  0  0  0  0  0  0  0  0  0  0
   -2.4001   -1.3856    0.0000 C   0  0  0  0  0  0  0  0  0  0  0  0
   -1.6001   -2.7713    0.0000 H   0  0  0  0  0  0  0  0  0  0  0  0
  1  2  4  0  0  0  0
  2  3  1  0  0  0  0
  2  4  4  0  0  0  0
  4  5  1  0  0  0  0
  4  6  4  0  0  0  0
  6  7  1  0  0  0  0
  6  8  4  0  0  0  0
  8  9  1  0  0  0  0
  8 10  4  0  0  0  0
 10  1  4  0  0  0  0
 10 11  1  0  0  0  0
  1 12  1  0  0  0  0
 12 13  4  0  0  0  0
 13 14  1  0  0  0  0
 13 15  4  0  0  0  0
 15 16  1  0  0  0  0
 15 17  4  0  0  0  0
 17 18  1  0  0  0  0
 17 19  4  0  0  0  0
 19 20  1  0  0  0  0
 19 21  4  0  0  0  0
 21 12  4  0  0  0  0
 21 22  1  0  0  0  0
M  END
> <CAS>
74472-37-0

> <NAME>
2,3,4,4',5-Pentachlorobiphenyl

> <preferred_name>
2,3,4,4',5-Pentachlorobiphenyl

> <iupac>
1,2,3,4-tetrachloro-5-(4-chlorophenyl)benzene

> <SMILES>
Clc1ccc(cc1)-c1cc(Cl)c(Cl)c(Cl)c1Cl

> <Canonical_QSARr>
Clc1ccc(cc1)-c1cc(Cl)c(Cl)c(Cl)c1Cl

> <InChI_Code_QSARr>
InChI=1S/C12H5Cl5/c13-7-3-1-6(2-4-7)8-5-9(14)11(16)12(17)10(8)15/h1-5H

> <InChI Key_QSARr>
SXZSFWHOSHAKMN-UHFFFAOYSA-N

> <Salt_Solvent>
?

> <WS Temperature>
20

> <WS Reference>
YALKOWSKY,SH & DANNENFELSER,RM (1992)

> <dsstox_substance_id>
DTXSID9074226

> <LogMolar>
-7.3102

$$$$
74472-45-0
  -INDIGO-01081615412D

 22 23  0  0  0  0  0  0  0  0999 V2000
    3.2000    0.0000    0.0000 C   0  0  0  0  0  0  0  0  0  0  0  0
    4.8000    0.0000    0.0000 Cl  0  0  0  0  0  0  0  0  0  0  0  0
    2.4000    1.3856    0.0000 C   0  0  0  0  0  0  0  0  0  0  0  0
    3.2000    2.7713    0.0000 Cl  0  0  0  0  0  0  0  0  0  0  0  0
    0.8001    1.3856    0.0000 C   0  0  0  0  0  0  0  0  0  0  0  0
    0.0001    2.7713    0.0000 H   0  0  0  0  0  0  0  0  0  0  0  0
    0.0001    0.0000    0.0000 C   0  0  0  0  0  0  0  0  0  0  0  0
   -1.6001   -0.0000    0.0000 C   0  0  0  0  0  0  0  0  0  0  0  0
   -2.4001    1.3856    0.0000 C   0  0  0  0  0  0  0  0  0  0  0  0
   -1.6001    2.7713    0.0000 Cl  0  0  0  0  0  0  0  0  0  0  0  0
   -4.0000    1.3856    0.0000 C   0  0  0  0  0  0  0  0  0  0  0  0
   -4.8000    2.7713    0.0000 H   0  0  0  0  0  0  0  0  0  0  0  0
   -4.8000   -0.0000    0.0000 C   0  0  0  0  0  0  0  0  0  0  0  0
   -6.4000   -0.0000    0.0000 H   0  0  0  0  0  0  0  0  0  0  0  0
   -4.0000   -1.3856    0.0000 C   0  0  0  0  0  0  0  0  0  0  0  0
   -4.8000   -2.7713    0.0000 Cl  0  0  0  0  0  0  0  0  0  0  0  0
   -2.4001   -1.3856    0.0000 C   0  0  0  0  0  0  0  0  0  0  0  0
   -1.6001   -2.7713    0.0000 Cl  0  0  0  0  0  0  0  0  0  0  0  0
    0.8001   -1.3856    0.0000 C   0  0  0  0  0  0  0  0  0  0  0  0
    0.0001   -2.7713    0.0000 H   0  0  0  0  0  0  0  0  0  0  0  0
    2.4000   -1.3856    0.0000 C   0  0  0  0  0  0  0  0  0  0  0  0
    3.2000   -2.7713    0.0000 Cl  0  0  0  0  0  0  0  0  0  0  0  0
  1  2  1  0  0  0  0
  1  3  4  0  0  0  0
  3  4  1  0  0  0  0
  3  5  4  0  0  0  0
  5  6  1  0  0  0  0
  5  7  4  0  0  0  0
  7  8  1  0  0  0  0
  8  9  4  0  0  0  0
  9 10  1  0  0  0  0
  9 11  4  0  0  0  0
 11 12  1  0  0  0  0
 11 13  4  0  0  0  0
 13 14  1  0  0  0  0
 13 15  4  0  0  0  0
 15 16  1  0  0  0  0
 15 17  4  0  0  0  0
 17  8  4  0  0  0  0
 17 18  1  0  0  0  0
  7 19  4  0  0  0  0
 19 20  1  0  0  0  0
 19 21  4  0  0  0  0
 21  1  4  0  0  0  0
 21 22  1  0  0  0  0
M  END
> <CAS>
74472-45-0

> <NAME>
1,1'-Biphenyl, 2,3,3',4',5',6-hexachloro-

> <preferred_name>
2,3,3',4',5',6-Hexachlorobiphenyl

> <iupac>
1,2,3-trichloro-5-(2,3,6-trichlorophenyl)benzene

> <SMILES>
Clc1ccc(Cl)c(Cl)c1-c1cc(Cl)c(Cl)c(Cl)c1

> <Canonical_QSARr>
Clc1ccc(Cl)c(Cl)c1-c1cc(Cl)c(Cl)c(Cl)c1

> <InChI_Code_QSARr>
InChI=1S/C12H4Cl6/c13-6-1-2-7(14)12(18)10(6)5-3-8(15)11(17)9(16)4-5/h1-4H

> <InChI Key_QSARr>
HAZQOLYHFUUJJN-UHFFFAOYSA-N

> <Salt_Solvent>
?

> <WS Temperature>
25

> <WS Reference>
PATIL,GS (1991)

> <dsstox_substance_id>
DTXSID3074234

> <LogMolar>
-8.27

$$$$
74472-51-8
  -INDIGO-01081615412D

 22 23  0  0  0  0  0  0  0  0999 V2000
    0.0001   -2.7713    0.0000 Cl  0  0  0  0  0  0  0  0  0  0  0  0
    0.8001   -1.3856    0.0000 C   0  0  0  0  0  0  0  0  0  0  0  0
    2.4000   -1.3856    0.0000 C   0  0  0  0  0  0  0  0  0  0  0  0
    3.2000   -2.7713    0.0000 Cl  0  0  0  0  0  0  0  0  0  0  0  0
    3.2000    0.0000    0.0000 C   0  0  0  0  0  0  0  0  0  0  0  0
    4.8000    0.0000    0.0000 Cl  0  0  0  0  0  0  0  0  0  0  0  0
    2.4000    1.3856    0.0000 C   0  0  0  0  0  0  0  0  0  0  0  0
    3.2000    2.7713    0.0000 Cl  0  0  0  0  0  0  0  0  0  0  0  0
    0.8001    1.3856    0.0000 C   0  0  0  0  0  0  0  0  0  0  0  0
    0.0001    2.7713    0.0000 Cl  0  0  0  0  0  0  0  0  0  0  0  0
    0.0001    0.0000    0.0000 C   0  0  0  0  0  0  0  0  0  0  0  0
   -1.6001    0.0000    0.0000 C   0  0  0  0  0  0  0  0  0  0  0  0
   -2.4001    1.3856    0.0000 C   0  0  0  0  0  0  0  0  0  0  0  0
   -1.6001    2.7713    0.0000 H   0  0  0  0  0  0  0  0  0  0  0  0
   -4.0000    1.3856    0.0000 C   0  0  0  0  0  0  0  0  0  0  0  0
   -4.8000    2.7713    0.0000 Cl  0  0  0  0  0  0  0  0  0  0  0  0
   -4.8000   -0.0000    0.0000 C   0  0  0  0  0  0  0  0  0  0  0  0
   -6.4000   -0.0000    0.0000 H   0  0  0  0  0  0  0  0  0  0  0  0
   -4.0000   -1.3856    0.0000 C   0  0  0  0  0  0  0  0  0  0  0  0
   -4.8000   -2.7713    0.0000 Cl  0  0  0  0  0  0  0  0  0  0  0  0
   -2.4001   -1.3856    0.0000 C   0  0  0  0  0  0  0  0  0  0  0  0
   -1.6001   -2.7713    0.0000 H   0  0  0  0  0  0  0  0  0  0  0  0
  1  2  1  0  0  0  0
  2  3  4  0  0  0  0
  3  4  1  0  0  0  0
  3  5  4  0  0  0  0
  5  6  1  0  0  0  0
  5  7  4  0  0  0  0
  7  8  1  0  0  0  0
  7  9  4  0  0  0  0
  9 10  1  0  0  0  0
  9 11  4  0  0  0  0
 11  2  4  0  0  0  0
 11 12  1  0  0  0  0
 12 13  4  0  0  0  0
 13 14  1  0  0  0  0
 13 15  4  0  0  0  0
 15 16  1  0  0  0  0
 15 17  4  0  0  0  0
 17 18  1  0  0  0  0
 17 19  4  0  0  0  0
 19 20  1  0  0  0  0
 19 21  4  0  0  0  0
 21 12  4  0  0  0  0
 21 22  1  0  0  0  0
M  END
> <CAS>
74472-51-8

> <NAME>
1,1'-Biphenyl, 2,3,3',4,5,5',6-heptachloro-

> <preferred_name>
2,3,3',4,5,5',6-Heptachlorobiphenyl

> <iupac>
1,2,3,4,5-pentachloro-6-(3,5-dichlorophenyl)benzene

> <SMILES>
Clc1c(Cl)c(Cl)c(-c2cc(Cl)cc(Cl)c2)c(Cl)c1Cl

> <Canonical_QSARr>
Clc1c(Cl)c(Cl)c(-c2cc(Cl)cc(Cl)c2)c(Cl)c1Cl

> <InChI_Code_QSARr>
InChI=1S/C12H3Cl7/c13-5-1-4(2-6(14)3-5)7-8(15)10(17)12(19)11(18)9(7)16/h1-3H

> <InChI Key_QSARr>
ZUTDUGMNROUBOX-UHFFFAOYSA-N

> <Salt_Solvent>
?

> <WS Temperature>
25

> <WS Reference>
PATIL,GS (1991)

> <dsstox_substance_id>
DTXSID8074239

> <LogMolar>
-9.1

$$$$
74553-29-0
  -INDIGO-01081615412D

 14 14  0  0  0  0  0  0  0  0999 V2000
    0.0000    2.7713    0.0000 Br  0  0  0  0  0  0  0  0  0  0  0  0
   -0.8000    1.3856    0.0000 C   0  0  0  0  0  0  0  0  0  0  0  0
   -2.4000    1.3856    0.0000 C   0  0  0  0  0  0  0  0  0  0  0  0
   -3.2000    2.7713    0.0000 H   0  0  0  0  0  0  0  0  0  0  0  0
   -3.2000   -0.0000    0.0000 C   0  0  0  0  0  0  0  0  0  0  0  0
   -4.8000   -0.0000    0.0000 H   0  0  0  0  0  0  0  0  0  0  0  0
   -2.4000   -1.3856    0.0000 C   0  0  0  0  0  0  0  0  0  0  0  0
   -3.2000   -2.7713    0.0000 Br  0  0  0  0  0  0  0  0  0  0  0  0
   -0.8000   -1.3856    0.0000 C   0  0  0  0  0  0  0  0  0  0  0  0
    0.0000   -2.7713    0.0000 H   0  0  0  0  0  0  0  0  0  0  0  0
    0.0000   -0.0000    0.0000 C   0  0  0  0  0  0  0  0  0  0  0  0
    1.6000    0.0000    0.0000 C   0  0  0  0  0  0  0  0  0  0  0  0
    2.4000   -1.3856    0.0000 O   0  0  0  0  0  0  0  0  0  0  0  0
    2.4000    1.3856    0.0000 H   0  0  0  0  0  0  0  0  0  0  0  0
  1  2  1  0  0  0  0
  2  3  4  0  0  0  0
  3  4  1  0  0  0  0
  3  5  4  0  0  0  0
  5  6  1  0  0  0  0
  5  7  4  0  0  0  0
  7  8  1  0  0  0  0
  7  9  4  0  0  0  0
  9 10  1  0  0  0  0
  9 11  4  0  0  0  0
 11  2  4  0  0  0  0
 11 12  1  0  0  0  0
 12 13  2  0  0  0  0
 12 14  1  0  0  0  0
M  END
> <CAS>
74553-29-0

> <NAME>
2,5-Dibromobenzaldehyde

> <preferred_name>
PUBCHEM_13540069

> <iupac>
C7H4Br2O

> <SMILES>
O=Cc1cc(Br)ccc1Br

> <Canonical_QSARr>
O=Cc1cc(Br)ccc1Br

> <InChI_Code_QSARr>
InChI=1S/C7H4Br2O/c8-6-1-2-7(9)5(3-6)4-10/h1-4H

> <InChI Key_QSARr>
BQBXKWGMPUCSQV-UHFFFAOYSA-N

> <Salt_Solvent>
?

> <WS Temperature>
25

> <WS Reference>
JIN,LJ ET AL. (1998)

> <dsstox_substance_id>
DTXSID60543266

> <LogMolar>
-3.8003

$$$$
74782-23-3
  -INDIGO-01081615412D

 29 30  0  0  0  0  0  0  0  0999 V2000
    6.8066   -1.5197    0.0000 C   0  0  0  0  0  0  0  0  0  0  0  0
    5.3450   -2.1706    0.0000 C   0  0  0  0  0  0  0  0  0  0  0  0
    4.0505   -1.2301    0.0000 N   0  0  0  0  0  0  0  0  0  0  0  0
    2.5889   -1.8809    0.0000 O   0  0  0  0  0  0  0  0  0  0  0  0
    1.2944   -0.9404    0.0000 C   0  0  0  0  0  0  0  0  0  0  0  0
    0.0000   -0.0000    0.0000 C   0  0  0  0  0  0  0  0  0  0  0  0
   -1.0706    1.1890    0.0000 O   0  0  0  0  0  0  0  0  0  0  0  0
   -2.5324    0.5382    0.0000 C   0  0  0  0  0  0  0  0  0  0  0  0
   -3.0267    2.0599    0.0000 H   0  0  0  0  0  0  0  0  0  0  0  0
   -4.0973    0.2056    0.0000 H   0  0  0  0  0  0  0  0  0  0  0  0
   -2.3651   -1.0530    0.0000 C   0  0  0  0  0  0  0  0  0  0  0  0
   -3.9650   -1.0530    0.0000 H   0  0  0  0  0  0  0  0  0  0  0  0
   -2.5324   -2.6442    0.0000 H   0  0  0  0  0  0  0  0  0  0  0  0
   -0.7999   -1.3857    0.0000 O   0  0  0  0  0  0  0  0  0  0  0  0
    1.0706    1.1890    0.0000 H   0  0  0  0  0  0  0  0  0  0  0  0
    2.2350    0.3540    0.0000 H   0  0  0  0  0  0  0  0  0  0  0  0
    0.3539   -2.2349    0.0000 H   0  0  0  0  0  0  0  0  0  0  0  0
    5.1778   -3.7619    0.0000 C   0  0  0  0  0  0  0  0  0  0  0  0
    5.0105   -5.3531    0.0000 N   0  0  0  0  0  0  0  0  0  0  0  0
    8.1010   -2.4603    0.0000 C   0  0  0  0  0  0  0  0  0  0  0  0
    7.9339   -4.0515    0.0000 H   0  0  0  0  0  0  0  0  0  0  0  0
    9.5628   -1.8095    0.0000 C   0  0  0  0  0  0  0  0  0  0  0  0
   10.8571   -2.7499    0.0000 H   0  0  0  0  0  0  0  0  0  0  0  0
    9.7301   -0.2182    0.0000 C   0  0  0  0  0  0  0  0  0  0  0  0
   11.1916    0.4326    0.0000 H   0  0  0  0  0  0  0  0  0  0  0  0
    8.4355    0.7222    0.0000 C   0  0  0  0  0  0  0  0  0  0  0  0
    8.6028    2.3134    0.0000 H   0  0  0  0  0  0  0  0  0  0  0  0
    6.9739    0.0715    0.0000 C   0  0  0  0  0  0  0  0  0  0  0  0
    5.6794    1.0119    0.0000 H   0  0  0  0  0  0  0  0  0  0  0  0
  1  2  1  0  0  0  0
  2  3  2  0  0  0  0
  3  4  1  0  0  0  0
  4  5  1  0  0  0  0
  5  6  1  0  0  0  0
  6  7  1  0  0  0  0
  7  8  1  0  0  0  0
  8  9  1  0  0  0  0
  8 10  1  0  0  0  0
  8 11  1  0  0  0  0
 11 12  1  0  0  0  0
 11 13  1  0  0  0  0
 11 14  1  0  0  0  0
 14  6  1  0  0  0  0
  6 15  1  0  0  0  0
  5 16  1  0  0  0  0
  5 17  1  0  0  0  0
  2 18  1  0  0  0  0
 18 19  3  0  0  0  0
  1 20  4  0  0  0  0
 20 21  1  0  0  0  0
 20 22  4  0  0  0  0
 22 23  1  0  0  0  0
 22 24  4  0  0  0  0
 24 25  1  0  0  0  0
 24 26  4  0  0  0  0
 26 27  1  0  0  0  0
 26 28  4  0  0  0  0
 28  1  4  0  0  0  0
 28 29  1  0  0  0  0
M  END
> <CAS>
74782-23-3

> <NAME>
OXABETRINIL

> <preferred_name>
Oxabentrinil

> <iupac>
N-(1,3-dioxolan-2-ylmethoxy)-1-phenylprop-2-yn-1-imine

> <SMILES>
N#C/C(=N\OCC1OCCO1)/c1ccccc1

> <Canonical_QSARr>
N#CC(=NOCC1OCCO1)c1ccccc1

> <InChI_Code_QSARr>
InChI=1S/C12H12N2O3/c13-8-11(10-4-2-1-3-5-10)14-17-9-12-15-6-7-16-12/h1-5,12H,6-7,9H2/b14-11+

> <InChI Key_QSARr>
WFVUIONFJOAYPK-SDNWHVSQSA-N

> <Salt_Solvent>
?

> <WS Temperature>
20

> <WS Reference>
SHIU,WY ET AL. (1990)

> <dsstox_substance_id>
DTXSID8052489

> <LogMolar>
-4.0649

$$$$
76146-27-5
  -INDIGO-01081615412D

 18 18  0  0  0  0  0  0  0  0999 V2000
    2.3830    3.3856    0.0000 O   0  0  0  0  0  0  0  0  0  0  0  0
    1.7323    1.9239    0.0000 C   0  0  0  0  0  0  0  0  0  0  0  0
    0.1672    1.5912    0.0000 C   0  0  0  0  0  0  0  0  0  0  0  0
    0.0000    3.1825    0.0000 H   0  0  0  0  0  0  0  0  0  0  0  0
   -1.4327    1.5912    0.0000 H   0  0  0  0  0  0  0  0  0  0  0  0
    0.0000    0.0000    0.0000 N   0  0  0  0  0  0  0  0  0  0  0  0
   -1.3857   -0.8000    0.0000 C   0  0  0  0  0  0  0  0  0  0  0  0
   -2.7712   -1.6000    0.0000 C   0  0  0  0  0  0  0  0  0  0  0  0
   -4.1569   -2.4000    0.0000 H   0  0  0  0  0  0  0  0  0  0  0  0
   -4.1569   -0.8000    0.0000 H   0  0  0  0  0  0  0  0  0  0  0  0
   -2.7712   -3.2000    0.0000 H   0  0  0  0  0  0  0  0  0  0  0  0
   -0.5856   -2.1857    0.0000 H   0  0  0  0  0  0  0  0  0  0  0  0
   -2.1857    0.5856    0.0000 H   0  0  0  0  0  0  0  0  0  0  0  0
    1.4617   -0.6508    0.0000 C   0  0  0  0  0  0  0  0  0  0  0  0
    1.7943   -2.2158    0.0000 N   0  0  0  0  0  0  0  0  0  0  0  0
    3.3160   -2.7102    0.0000 H   0  0  0  0  0  0  0  0  0  0  0  0
    0.6053   -3.2864    0.0000 H   0  0  0  0  0  0  0  0  0  0  0  0
    2.5323    0.5383    0.0000 N   0  0  0  0  0  0  0  0  0  0  0  0
  1  2  2  0  0  0  0
  2  3  1  0  0  0  0
  3  4  1  0  0  0  0
  3  5  1  0  0  0  0
  3  6  1  0  0  0  0
  6  7  1  0  0  0  0
  7  8  1  0  0  0  0
  8  9  1  0  0  0  0
  8 10  1  0  0  0  0
  8 11  1  0  0  0  0
  7 12  1  0  0  0  0
  7 13  1  0  0  0  0
  6 14  1  0  0  0  0
 14 15  1  0  0  0  0
 15 16  1  0  0  0  0
 15 17  1  0  0  0  0
 14 18  2  0  0  0  0
 18  2  1  0  0  0  0
M  END
> <CAS>
76146-27-5

> <NAME>
4H-Imidazol-4-one, 2-amino-1-ethyl-1,5-dihydro-

> <preferred_name>
2-Amino-1-ethyl-1,5-dihydro-4H-imidazol-4-one

> <iupac>
2-amino-1-ethyl-5H-imidazol-4-one

> <SMILES>
CCN1CC(=O)N=C1N

> <Canonical_QSARr>
CCN1CC(=O)N=C1N

> <InChI_Code_QSARr>
InChI=1S/C5H9N3O/c1-2-8-3-4(9)7-5(8)6/h2-3H2,1H3,(H2,6,7,9)

> <InChI Key_QSARr>
LCDGAYYHFKVEAR-UHFFFAOYSA-N

> <Salt_Solvent>
?

> <WS Temperature>
25

> <WS Reference>
BEILSTEIN

> <dsstox_substance_id>
DTXSID90227002

> <LogMolar>
-0.165

$$$$
76371-36-3
  -INDIGO-01081615412D

 17 16  0  0  0  0  0  0  0  0999 V2000
   -0.0000   -0.0000    0.0000 C   0  0  0  0  0  0  0  0  0  0  0  0
   -0.0000   -1.6000    0.0000 Cl  0  0  0  0  0  0  0  0  0  0  0  0
   -1.5035   -0.5472    0.0000 S   0  0  0  0  0  0  0  0  0  0  0  0
   -0.9563   -2.0507    0.0000 O   0  0  0  0  0  0  0  0  0  0  0  0
   -3.0070   -1.0945    0.0000 O   0  0  0  0  0  0  0  0  0  0  0  0
   -3.2849   -2.6702    0.0000 H   0  0  0  0  0  0  0  0  0  0  0  0
   -2.5320    0.6785    0.0000 O   0  0  0  0  0  0  0  0  0  0  0  0
   -0.0000    0.6400    0.0000 S   0  0  0  0  0  0  0  0  0  0  0  0
    1.5035    1.1872    0.0000 O   0  0  0  0  0  0  0  0  0  0  0  0
   -0.0000    2.2400    0.0000 O   0  0  0  0  0  0  0  0  0  0  0  0
   -1.3856    3.0400    0.0000 H   0  0  0  0  0  0  0  0  0  0  0  0
   -1.5035    1.1872    0.0000 O   0  0  0  0  0  0  0  0  0  0  0  0
    1.5757   -0.2779    0.0000 S   0  0  0  0  0  0  0  0  0  0  0  0
    1.2979   -1.8536    0.0000 O   0  0  0  0  0  0  0  0  0  0  0  0
    3.1514   -0.5557    0.0000 O   0  0  0  0  0  0  0  0  0  0  0  0
    3.6986   -2.0592    0.0000 H   0  0  0  0  0  0  0  0  0  0  0  0
    2.6041    0.9478    0.0000 O   0  0  0  0  0  0  0  0  0  0  0  0
  1  2  1  0  0  0  0
  1  3  1  0  0  0  0
  3  4  2  0  0  0  0
  3  5  1  0  0  0  0
  5  6  1  0  0  0  0
  3  7  2  0  0  0  0
  1  8  1  0  0  0  0
  8  9  2  0  0  0  0
  8 10  1  0  0  0  0
 10 11  1  0  0  0  0
  8 12  2  0  0  0  0
  1 13  1  0  0  0  0
 13 14  2  0  0  0  0
 13 15  1  0  0  0  0
 15 16  1  0  0  0  0
 13 17  2  0  0  0  0
M  END
> <CAS>
76371-36-3

> <NAME>
Methanetrisulfonic acid, chloro-

> <preferred_name>


> <iupac>


> <SMILES>
OS(=O)(=O)C(Cl)(S(O)(=O)=O)S(O)(=O)=O

> <Canonical_QSARr>
OS(=O)(=O)C(Cl)(S(O)(=O)=O)S(O)(=O)=O

> <InChI_Code_QSARr>
InChI=1S/CH3ClO9S3/c2-1(12(3,4)5,13(6,7)8)14(9,10)11/h(H,3,4,5)(H,6,7,8)(H,9,10,11)

> <InChI Key_QSARr>
AASRJJKRVOUFBO-UHFFFAOYSA-N

> <Salt_Solvent>
?

> <WS Temperature>
25

> <WS Reference>
BEILSTEIN

> <dsstox_substance_id>


> <LogMolar>
0.5366

$$$$
76466-16-5
  -INDIGO-01081615412D

 22 22  0  0  0  0  0  0  0  0999 V2000
    1.3856    0.8000    0.0000 C   0  0  0  0  0  0  0  0  0  0  0  0
   -0.0000    0.0000    0.0000 C   0  0  0  0  0  0  0  0  0  0  0  0
   -0.8000    1.3856    0.0000 O   0  0  0  0  0  0  0  0  0  0  0  0
   -2.4001    1.3856    0.0000 C   0  0  0  0  0  0  0  0  0  0  0  0
   -3.2001    2.7713    0.0000 C   0  0  0  0  0  0  0  0  0  0  0  0
   -2.4001    4.1569    0.0000 H   0  0  0  0  0  0  0  0  0  0  0  0
   -4.8000    2.7713    0.0000 C   0  0  0  0  0  0  0  0  0  0  0  0
   -5.6000    4.1569    0.0000 H   0  0  0  0  0  0  0  0  0  0  0  0
   -5.6000    1.3856    0.0000 C   0  0  0  0  0  0  0  0  0  0  0  0
   -7.2000    1.3856    0.0000 H   0  0  0  0  0  0  0  0  0  0  0  0
   -4.8000    0.0000    0.0000 C   0  0  0  0  0  0  0  0  0  0  0  0
   -5.6000   -1.3856    0.0000 H   0  0  0  0  0  0  0  0  0  0  0  0
   -3.2001    0.0000    0.0000 C   0  0  0  0  0  0  0  0  0  0  0  0
   -2.4001   -1.3856    0.0000 Cl  0  0  0  0  0  0  0  0  0  0  0  0
    0.8000   -1.3856    0.0000 C   0  0  0  0  0  0  0  0  0  0  0  0
    1.6000   -2.7713    0.0000 H   0  0  0  0  0  0  0  0  0  0  0  0
    2.4000   -1.3856    0.0000 H   0  0  0  0  0  0  0  0  0  0  0  0
   -0.0000   -2.7713    0.0000 H   0  0  0  0  0  0  0  0  0  0  0  0
   -1.3857   -0.8000    0.0000 H   0  0  0  0  0  0  0  0  0  0  0  0
    1.3856    2.4000    0.0000 O   0  0  0  0  0  0  0  0  0  0  0  0
    2.7713    3.2000    0.0000 H   0  0  0  0  0  0  0  0  0  0  0  0
    2.7713    0.0000    0.0000 O   0  0  0  0  0  0  0  0  0  0  0  0
  1  2  1  0  0  0  0
  2  3  1  0  0  0  0
  3  4  1  0  0  0  0
  4  5  4  0  0  0  0
  5  6  1  0  0  0  0
  5  7  4  0  0  0  0
  7  8  1  0  0  0  0
  7  9  4  0  0  0  0
  9 10  1  0  0  0  0
  9 11  4  0  0  0  0
 11 12  1  0  0  0  0
 11 13  4  0  0  0  0
 13  4  4  0  0  0  0
 13 14  1  0  0  0  0
  2 15  1  0  0  0  0
 15 16  1  0  0  0  0
 15 17  1  0  0  0  0
 15 18  1  0  0  0  0
  2 19  1  0  0  0  0
  1 20  1  0  0  0  0
 20 21  1  0  0  0  0
  1 22  2  0  0  0  0
M  END
> <CAS>
76466-16-5

> <NAME>
2-(2-Chlorophenoxy)propanoic acid

> <preferred_name>


> <iupac>


> <SMILES>
CC(Oc1ccccc1Cl)C(O)=O

> <Canonical_QSARr>
CC(Oc1ccccc1Cl)C(O)=O

> <InChI_Code_QSARr>
InChI=1S/C9H9ClO3/c1-6(9(11)12)13-8-5-3-2-4-7(8)10/h2-6H,1H3,(H,11,12)

> <InChI Key_QSARr>
ZGWNXHRVUJVMCP-UHFFFAOYSA-N

> <Salt_Solvent>
?

> <WS Temperature>
22

> <WS Reference>
YALKOWSKY,SH & DANNENFELSER,RM (1992)

> <dsstox_substance_id>


> <LogMolar>
-2.2232

$$$$
76738-62-0
  -INDIGO-01081615412D

 40 41  0  0  0  0  0  0  0  0999 V2000
   -0.5716    3.9970    0.0000 N   0  0  0  1  0  0  0  0  0  0  0  0
   -1.6000    2.7713    0.0000 C   0  0  0  0  0  0  0  0  0  0  0  0
   -3.2000    2.7713    0.0000 C   0  0  0  0  0  0  0  0  0  0  0  0
   -4.8000    2.7713    0.0000 C   0  0  0  0  0  0  0  0  0  0  0  0
   -5.6001    4.1570    0.0000 C   0  0  0  0  0  0  0  0  0  0  0  0
   -4.8000    5.5426    0.0000 H   0  0  0  0  0  0  0  0  0  0  0  0
   -7.2001    4.1570    0.0000 C   0  0  0  0  0  0  0  0  0  0  0  0
   -8.0000    5.5426    0.0000 H   0  0  0  0  0  0  0  0  0  0  0  0
   -8.0000    2.7713    0.0000 C   0  0  0  0  0  0  0  0  0  0  0  0
   -9.6000    2.7713    0.0000 Cl  0  0  0  0  0  0  0  0  0  0  0  0
   -7.1999    1.3856    0.0000 C   0  0  0  0  0  0  0  0  0  0  0  0
   -8.0000    0.0000    0.0000 H   0  0  0  0  0  0  0  0  0  0  0  0
   -5.6001    1.3856    0.0000 C   0  0  0  0  0  0  0  0  0  0  0  0
   -4.8000    0.0000    0.0000 H   0  0  0  0  0  0  0  0  0  0  0  0
   -3.2000    1.1713    0.0000 H   0  0  0  0  0  0  0  0  0  0  0  0
   -3.4778    4.3470    0.0000 H   0  0  0  0  0  0  0  0  0  0  0  0
   -0.7999    1.3856    0.0000 C   0  0  0  0  0  0  0  0  0  0  0  0
   -2.1856    0.5857    0.0000 O   0  0  0  0  0  0  0  0  0  0  0  0
   -2.8892   -0.2528    0.0000 H   0  0  0  0  0  0  0  0  0  0  0  0
    0.0000    0.0000    0.0000 C   0  0  0  0  0  0  0  0  0  0  0  0
    0.8001   -1.3857    0.0000 C   0  0  0  0  0  0  0  0  0  0  0  0
    1.6000   -2.7713    0.0000 H   0  0  0  0  0  0  0  0  0  0  0  0
    2.3757   -1.6634    0.0000 H   0  0  0  0  0  0  0  0  0  0  0  0
    0.2529   -2.8892    0.0000 H   0  0  0  0  0  0  0  0  0  0  0  0
   -1.3855   -0.8000    0.0000 C   0  0  0  0  0  0  0  0  0  0  0  0
   -1.6636   -2.3756    0.0000 H   0  0  0  0  0  0  0  0  0  0  0  0
   -0.3572   -2.0256    0.0000 H   0  0  0  0  0  0  0  0  0  0  0  0
   -2.4635   -0.9901    0.0000 H   0  0  0  0  0  0  0  0  0  0  0  0
    1.3855    0.8001    0.0000 C   0  0  0  0  0  0  0  0  0  0  0  0
    2.8892    0.2528    0.0000 H   0  0  0  0  0  0  0  0  0  0  0  0
    2.6112    1.8284    0.0000 H   0  0  0  0  0  0  0  0  0  0  0  0
    1.6636   -0.7757    0.0000 H   0  0  0  0  0  0  0  0  0  0  0  0
    0.5856    2.1856    0.0000 H   0  0  0  0  0  0  0  0  0  0  0  0
   -2.4001    4.1570    0.0000 H   0  0  0  0  0  0  0  0  0  0  0  0
   -0.9586    5.5494    0.0000 C   0  0  0  0  0  0  0  0  0  0  0  0
   -2.4422    6.1488    0.0000 H   0  0  0  0  0  0  0  0  0  0  0  0
    0.3983    6.3973    0.0000 N   0  0  0  1  0  0  0  0  0  0  0  0
    1.6240    5.3688    0.0000 C   0  0  0  0  0  0  0  0  0  0  0  0
    3.1764    5.7560    0.0000 H   0  0  0  0  0  0  0  0  0  0  0  0
    1.0245    3.8853    0.0000 N   0  0  0  1  0  0  0  0  0  0  0  0
  1  2  1  0  0  0  0
  2  3  1  0  0  0  0
  3  4  1  0  0  0  0
  4  5  4  0  0  0  0
  5  6  1  0  0  0  0
  5  7  4  0  0  0  0
  7  8  1  0  0  0  0
  7  9  4  0  0  0  0
  9 10  1  0  0  0  0
  9 11  4  0  0  0  0
 11 12  1  0  0  0  0
 11 13  4  0  0  0  0
 13  4  4  0  0  0  0
 13 14  1  0  0  0  0
  3 15  1  0  0  0  0
  3 16  1  0  0  0  0
  2 17  1  0  0  0  0
 17 18  1  0  0  0  0
 18 19  1  0  0  0  0
 17 20  1  0  0  0  0
 20 21  1  0  0  0  0
 21 22  1  0  0  0  0
 21 23  1  0  0  0  0
 21 24  1  0  0  0  0
 20 25  1  0  0  0  0
 25 26  1  0  0  0  0
 25 27  1  0  0  0  0
 25 28  1  0  0  0  0
 20 29  1  0  0  0  0
 29 30  1  0  0  0  0
 29 31  1  0  0  0  0
 29 32  1  0  0  0  0
 17 33  1  0  0  0  0
  2 34  1  0  0  0  0
  1 35  4  0  0  0  0
 35 36  1  0  0  0  0
 35 37  4  0  0  0  0
 37 38  4  0  0  0  0
 38 39  1  0  0  0  0
 38 40  4  0  0  0  0
 40  1  4  0  0  0  0
M  END
> <CAS>
76738-62-0

> <NAME>
PACLOBUTRAZOL

> <preferred_name>
Paclobutrazol

> <iupac>


> <SMILES>
CC(C)(C)[C@@H](O)[C@@H](Cc1ccc(Cl)cc1)[n]1c[n]c[n]1 |o1:4,6|

> <Canonical_QSARr>
CC(C)(C)C(O)C(Cc1ccc(Cl)cc1)[n]1c[n]c[n]1

> <InChI_Code_QSARr>
InChI=1S/C15H20ClN3O/c1-15(2,3)14(20)13(19-10-17-9-18-19)8-11-4-6-12(16)7-5-11/h4-7,9-10,13-14,20H,8H2,1-3H3

> <InChI Key_QSARr>
RMOGWMIKYWRTKW-UHFFFAOYSA-N

> <Salt_Solvent>
?

> <WS Temperature>
20

> <WS Reference>
TOMLIN,C (1994)

> <dsstox_substance_id>
DTXSID2024242

> <LogMolar>
-3.98855

$$$$
77458-01-6
  -INDIGO-01081615412D

 40 41  0  0  0  0  0  0  0  0999 V2000
   -3.1629   -5.0828    0.0000 C   0  0  0  0  0  0  0  0  0  0  0  0
   -2.9956   -3.4916    0.0000 C   0  0  0  0  0  0  0  0  0  0  0  0
   -2.8286   -1.9003    0.0000 O   0  0  0  0  0  0  0  0  0  0  0  0
   -4.1231   -0.9599    0.0000 P   0  0  0  0  0  0  0  0  0  0  0  0
   -3.1826    0.3346    0.0000 S   0  0  0  0  0  0  0  0  0  0  0  0
   -1.5913    0.1672    0.0000 C   0  0  0  0  0  0  0  0  0  0  0  0
   -0.0001    0.0000    0.0000 C   0  0  0  0  0  0  0  0  0  0  0  0
    1.5912   -0.1673    0.0000 C   0  0  0  0  0  0  0  0  0  0  0  0
    3.1825   -0.3345    0.0000 H   0  0  0  0  0  0  0  0  0  0  0  0
    2.5317    1.1272    0.0000 H   0  0  0  0  0  0  0  0  0  0  0  0
    2.2420   -1.6289    0.0000 H   0  0  0  0  0  0  0  0  0  0  0  0
    0.1672    1.5913    0.0000 H   0  0  0  0  0  0  0  0  0  0  0  0
   -0.1673   -1.5912    0.0000 H   0  0  0  0  0  0  0  0  0  0  0  0
   -1.4240    1.7585    0.0000 H   0  0  0  0  0  0  0  0  0  0  0  0
   -1.7586   -1.4240    0.0000 H   0  0  0  0  0  0  0  0  0  0  0  0
   -5.0633   -2.2543    0.0000 O   0  0  0  0  0  0  0  0  0  0  0  0
   -6.6545   -2.0871    0.0000 C   0  0  0  0  0  0  0  0  0  0  0  0
   -7.4545   -0.7015    0.0000 C   0  0  0  0  0  0  0  0  0  0  0  0
   -6.8038    0.7601    0.0000 H   0  0  0  0  0  0  0  0  0  0  0  0
   -9.0196   -1.0342    0.0000 N   0  0  0  1  0  0  0  0  0  0  0  0
   -9.1868   -2.6254    0.0000 N   0  0  0  1  0  0  0  0  0  0  0  0
  -10.5726   -3.4253    0.0000 C   0  0  0  0  0  0  0  0  0  0  0  0
  -11.9583   -2.6254    0.0000 C   0  0  0  0  0  0  0  0  0  0  0  0
  -11.9583   -1.0253    0.0000 H   0  0  0  0  0  0  0  0  0  0  0  0
  -13.3437   -3.4253    0.0000 C   0  0  0  0  0  0  0  0  0  0  0  0
  -14.7295   -2.6254    0.0000 H   0  0  0  0  0  0  0  0  0  0  0  0
  -13.3437   -5.0254    0.0000 C   0  0  0  0  0  0  0  0  0  0  0  0
  -14.7295   -5.8254    0.0000 Cl  0  0  0  0  0  0  0  0  0  0  0  0
  -11.9583   -5.8254    0.0000 C   0  0  0  0  0  0  0  0  0  0  0  0
  -11.9583   -7.4254    0.0000 H   0  0  0  0  0  0  0  0  0  0  0  0
  -10.5726   -5.0254    0.0000 C   0  0  0  0  0  0  0  0  0  0  0  0
   -9.1868   -5.8254    0.0000 H   0  0  0  0  0  0  0  0  0  0  0  0
   -7.7251   -3.2762    0.0000 C   0  0  0  0  0  0  0  0  0  0  0  0
   -7.3925   -4.8413    0.0000 H   0  0  0  0  0  0  0  0  0  0  0  0
   -5.4172   -0.0194    0.0000 O   0  0  0  0  0  0  0  0  0  0  0  0
   -1.4046   -3.6589    0.0000 H   0  0  0  0  0  0  0  0  0  0  0  0
   -4.5869   -3.3244    0.0000 H   0  0  0  0  0  0  0  0  0  0  0  0
   -3.3302   -6.6741    0.0000 H   0  0  0  0  0  0  0  0  0  0  0  0
   -1.8685   -6.0233    0.0000 H   0  0  0  0  0  0  0  0  0  0  0  0
   -4.6246   -5.7336    0.0000 H   0  0  0  0  0  0  0  0  0  0  0  0
  1  2  1  0  0  0  0
  2  3  1  0  0  0  0
  3  4  1  0  0  0  0
  4  5  1  0  0  0  0
  5  6  1  0  0  0  0
  6  7  1  0  0  0  0
  7  8  1  0  0  0  0
  8  9  1  0  0  0  0
  8 10  1  0  0  0  0
  8 11  1  0  0  0  0
  7 12  1  0  0  0  0
  7 13  1  0  0  0  0
  6 14  1  0  0  0  0
  6 15  1  0  0  0  0
  4 16  1  0  0  0  0
 16 17  1  0  0  0  0
 17 18  4  0  0  0  0
 18 19  1  0  0  0  0
 18 20  4  0  0  0  0
 20 21  4  0  0  0  0
 21 22  1  0  0  0  0
 22 23  4  0  0  0  0
 23 24  1  0  0  0  0
 23 25  4  0  0  0  0
 25 26  1  0  0  0  0
 25 27  4  0  0  0  0
 27 28  1  0  0  0  0
 27 29  4  0  0  0  0
 29 30  1  0  0  0  0
 29 31  4  0  0  0  0
 31 22  4  0  0  0  0
 31 32  1  0  0  0  0
 21 33  4  0  0  0  0
 33 17  4  0  0  0  0
 33 34  1  0  0  0  0
  4 35  2  0  0  0  0
  2 36  1  0  0  0  0
  2 37  1  0  0  0  0
  1 38  1  0  0  0  0
  1 39  1  0  0  0  0
  1 40  1  0  0  0  0
M  END
> <CAS>
77458-01-6

> <NAME>
Pyraclofos

> <preferred_name>
Pyraclofos

> <iupac>
O-[1-(4-chlorophenyl)-1H-pyrazol-4-yl] O-ethyl S-propyl phosphorothioate

> <SMILES>
CCOP(=O)(Oc1c[n]([n]c1)-c1ccc(Cl)cc1)SCCC

> <Canonical_QSARr>
CCOP(=O)(Oc1c[n]([n]c1)-c1ccc(Cl)cc1)SCCC

> <InChI_Code_QSARr>
InChI=1S/C14H18ClN2O3PS/c1-3-9-22-21(18,19-4-2)20-14-10-16-17(11-14)13-7-5-12(15)6-8-13/h5-8,10-11H,3-4,9H2,1-2H3

> <InChI Key_QSARr>
QHGVXILFMXYDRS-UHFFFAOYSA-N

> <Salt_Solvent>
?

> <WS Temperature>
20

> <WS Reference>
TOMLIN,C (1994)

> <dsstox_substance_id>
DTXSID4058493

> <LogMolar>
-4.0388

$$$$
77632-11-2
  -INDIGO-01081615412D

 18 19  0  0  0  0  0  0  0  0999 V2000
    0.8000   -1.3856    0.0000 C   0  0  0  0  0  0  0  0  0  0  0  0
    2.4000   -1.3856    0.0000 N   0  0  0  1  0  0  0  0  0  0  0  0
    3.2001    0.0000    0.0000 C   0  0  0  0  0  0  0  0  0  0  0  0
    4.8000    0.0000    0.0000 H   0  0  0  0  0  0  0  0  0  0  0  0
    2.4000    1.3856    0.0000 C   0  0  0  0  0  0  0  0  0  0  0  0
    3.2001    2.7713    0.0000 H   0  0  0  0  0  0  0  0  0  0  0  0
    0.8000    1.3856    0.0000 N   0  0  0  1  0  0  0  0  0  0  0  0
    0.0001    0.0000    0.0000 C   0  0  0  0  0  0  0  0  0  0  0  0
   -1.6000    0.0000    0.0000 C   0  0  0  0  0  0  0  0  0  0  0  0
   -2.4000    1.3856    0.0000 N   0  0  0  0  0  0  0  0  0  0  0  0
   -4.0000    1.3856    0.0000 N   0  0  0  0  0  0  0  0  0  0  0  0
   -4.8000    2.7713    0.0000 H   0  0  0  0  0  0  0  0  0  0  0  0
   -4.8000    0.0000    0.0000 H   0  0  0  0  0  0  0  0  0  0  0  0
   -2.4000   -1.3856    0.0000 N   0  0  0  0  0  0  0  0  0  0  0  0
   -1.6000   -2.7713    0.0000 C   0  0  0  0  0  0  0  0  0  0  0  0
   -2.4000   -4.1569    0.0000 H   0  0  0  0  0  0  0  0  0  0  0  0
    0.0001   -2.7713    0.0000 N   0  0  0  0  0  0  0  0  0  0  0  0
    0.8000   -4.1569    0.0000 H   0  0  0  0  0  0  0  0  0  0  0  0
  1  2  4  0  0  0  0
  2  3  4  0  0  0  0
  3  4  1  0  0  0  0
  3  5  4  0  0  0  0
  5  6  1  0  0  0  0
  5  7  4  0  0  0  0
  7  8  4  0  0  0  0
  8  1  4  0  0  0  0
  8  9  1  0  0  0  0
  9 10  2  0  0  0  0
 10 11  1  0  0  0  0
 11 12  1  0  0  0  0
 11 13  1  0  0  0  0
  9 14  1  0  0  0  0
 14 15  2  0  0  0  0
 15 16  1  0  0  0  0
 15 17  1  0  0  0  0
 17  1  1  0  0  0  0
 17 18  1  0  0  0  0
M  END
> <CAS>
77632-11-2

> <NAME>
4(1H)-Pteridinone, hydrazone

> <preferred_name>


> <iupac>


> <SMILES>
NN=C1N=CNc2[n]cc[n]c21

> <Canonical_QSARr>
NN=C1N=CNc2[n]cc[n]c21

> <InChI_Code_QSARr>
InChI=1S/C6H6N6/c7-12-6-4-5(10-3-11-6)9-2-1-8-4/h1-3H,7H2,(H,9,10,11,12)

> <InChI Key_QSARr>
IDWVTPLLYFMNEX-UHFFFAOYSA-N

> <Salt_Solvent>
?

> <WS Temperature>
20

> <WS Reference>
BEILSTEIN

> <dsstox_substance_id>


> <LogMolar>
-1.8632

$$$$
78587-05-0
  -INDIGO-01081615412D

 44 46  0  0  0  0  0  0  0  0999 V2000
    4.2327   -0.0661    0.0000 N   0  0  0  0  0  0  0  0  0  0  0  0
    4.6736   -1.6040    0.0000 C   0  0  0  0  0  0  0  0  0  0  0  0
    4.2327   -3.1420    0.0000 C   0  0  0  0  0  0  0  0  0  0  0  0
    3.7918   -4.6800    0.0000 H   0  0  0  0  0  0  0  0  0  0  0  0
    2.6803   -3.5291    0.0000 H   0  0  0  0  0  0  0  0  0  0  0  0
    5.1274   -4.4686    0.0000 H   0  0  0  0  0  0  0  0  0  0  0  0
    3.0980   -1.8818    0.0000 H   0  0  0  0  0  0  0  0  0  0  0  0
    6.2727   -1.6599    0.0000 C   0  0  0  0  0  0  0  0  0  0  0  0
    7.8251   -2.0469    0.0000 C   0  0  0  0  0  0  0  0  0  0  0  0
    8.2663   -3.5849    0.0000 C   0  0  0  0  0  0  0  0  0  0  0  0
    7.1548   -4.7359    0.0000 H   0  0  0  0  0  0  0  0  0  0  0  0
    9.8187   -3.9721    0.0000 C   0  0  0  0  0  0  0  0  0  0  0  0
   10.2597   -5.5100    0.0000 H   0  0  0  0  0  0  0  0  0  0  0  0
   10.9302   -2.8211    0.0000 C   0  0  0  0  0  0  0  0  0  0  0  0
   12.4826   -3.2081    0.0000 Cl  0  0  0  0  0  0  0  0  0  0  0  0
   10.4890   -1.2831    0.0000 C   0  0  0  0  0  0  0  0  0  0  0  0
   11.6005   -0.1321    0.0000 H   0  0  0  0  0  0  0  0  0  0  0  0
    8.9366   -0.8959    0.0000 C   0  0  0  0  0  0  0  0  0  0  0  0
    8.4957    0.6421    0.0000 H   0  0  0  0  0  0  0  0  0  0  0  0
    6.0501   -3.2443    0.0000 H   0  0  0  0  0  0  0  0  0  0  0  0
    6.8200   -0.1564    0.0000 S   0  0  0  0  0  0  0  0  0  0  0  0
    5.5591    0.8287    0.0000 C   0  0  0  0  0  0  0  0  0  0  0  0
    5.6151    2.4277    0.0000 O   0  0  0  0  0  0  0  0  0  0  0  0
    2.7293    0.4813    0.0000 C   0  0  0  0  0  0  0  0  0  0  0  0
    2.4514    2.0569    0.0000 O   0  0  0  0  0  0  0  0  0  0  0  0
    1.5035   -0.5472    0.0000 N   0  0  0  0  0  0  0  0  0  0  0  0
   -0.0001    0.0000    0.0000 C   0  0  0  0  0  0  0  0  0  0  0  0
   -0.7999    1.3856    0.0000 C   0  0  0  0  0  0  0  0  0  0  0  0
    0.7034    1.9329    0.0000 H   0  0  0  0  0  0  0  0  0  0  0  0
   -1.0778    2.9613    0.0000 H   0  0  0  0  0  0  0  0  0  0  0  0
   -2.4001    1.3856    0.0000 C   0  0  0  0  0  0  0  0  0  0  0  0
   -2.1222    2.9613    0.0000 H   0  0  0  0  0  0  0  0  0  0  0  0
   -3.9035    1.9329    0.0000 H   0  0  0  0  0  0  0  0  0  0  0  0
   -3.1999    0.0000    0.0000 C   0  0  0  0  0  0  0  0  0  0  0  0
   -4.4257    1.0284    0.0000 H   0  0  0  0  0  0  0  0  0  0  0  0
   -4.4257   -1.0284    0.0000 H   0  0  0  0  0  0  0  0  0  0  0  0
   -2.4001   -1.3856    0.0000 C   0  0  0  0  0  0  0  0  0  0  0  0
   -3.9035   -1.9329    0.0000 H   0  0  0  0  0  0  0  0  0  0  0  0
   -2.1222   -2.9613    0.0000 H   0  0  0  0  0  0  0  0  0  0  0  0
   -0.7999   -1.3856    0.0000 C   0  0  0  0  0  0  0  0  0  0  0  0
   -1.0778   -2.9613    0.0000 H   0  0  0  0  0  0  0  0  0  0  0  0
    0.7034   -1.9329    0.0000 H   0  0  0  0  0  0  0  0  0  0  0  0
    1.2257    1.0284    0.0000 H   0  0  0  0  0  0  0  0  0  0  0  0
    1.7814   -2.1229    0.0000 H   0  0  0  0  0  0  0  0  0  0  0  0
  1  2  1  0  0  0  0
  2  3  1  0  0  0  0
  3  4  1  0  0  0  0
  3  5  1  0  0  0  0
  3  6  1  0  0  0  0
  2  7  1  0  0  0  0
  2  8  1  0  0  0  0
  8  9  1  0  0  0  0
  9 10  4  0  0  0  0
 10 11  1  0  0  0  0
 10 12  4  0  0  0  0
 12 13  1  0  0  0  0
 12 14  4  0  0  0  0
 14 15  1  0  0  0  0
 14 16  4  0  0  0  0
 16 17  1  0  0  0  0
 16 18  4  0  0  0  0
 18  9  4  0  0  0  0
 18 19  1  0  0  0  0
  8 20  1  0  0  0  0
  8 21  1  0  0  0  0
 21 22  1  0  0  0  0
 22  1  1  0  0  0  0
 22 23  2  0  0  0  0
  1 24  1  0  0  0  0
 24 25  2  0  0  0  0
 24 26  1  0  0  0  0
 26 27  1  0  0  0  0
 27 28  1  0  0  0  0
 28 29  1  0  0  0  0
 28 30  1  0  0  0  0
 28 31  1  0  0  0  0
 31 32  1  0  0  0  0
 31 33  1  0  0  0  0
 31 34  1  0  0  0  0
 34 35  1  0  0  0  0
 34 36  1  0  0  0  0
 34 37  1  0  0  0  0
 37 38  1  0  0  0  0
 37 39  1  0  0  0  0
 37 40  1  0  0  0  0
 40 27  1  0  0  0  0
 40 41  1  0  0  0  0
 40 42  1  0  0  0  0
 27 43  1  0  0  0  0
 26 44  1  0  0  0  0
M  END
> <CAS>
78587-05-0

> <NAME>
Hexythiazox

> <preferred_name>
Hexythiazox

> <iupac>


> <SMILES>
C[C@@H]1[C@H](SC(=O)N1C(=O)NC1CCCCC1)c1ccc(Cl)cc1 |o1:1,2|

> <Canonical_QSARr>
CC1C(SC(=O)N1C(=O)NC1CCCCC1)c1ccc(Cl)cc1

> <InChI_Code_QSARr>
InChI=1S/C17H21ClN2O2S/c1-11-15(12-7-9-13(18)10-8-12)23-17(22)20(11)16(21)19-14-5-3-2-4-6-14/h7-11,14-15H,2-6H2,1H3,(H,19,21)

> <InChI Key_QSARr>
XGWIJUOSCAQSSV-UHFFFAOYSA-N

> <Salt_Solvent>
?

> <WS Temperature>
20

> <WS Reference>
TOMLIN,C (2003)

> <dsstox_substance_id>
DTXSID7024299

> <LogMolar>
-5.8487

$$$$
79540-50-4
  -INDIGO-01081615412D

 37 38  0  0  0  0  0  0  0  0999 V2000
    9.5999   -2.7713    0.0000 C   0  0  0  0  0  0  0  0  0  0  0  0
    7.9999   -2.7713    0.0000 C   0  0  0  0  0  0  0  0  0  0  0  0
    6.4001   -2.7713    0.0000 O   0  0  0  0  0  0  0  0  0  0  0  0
    5.5999   -1.3857    0.0000 C   0  0  0  0  0  0  0  0  0  0  0  0
    4.8001   -0.0000    0.0000 O   0  0  0  0  0  0  0  0  0  0  0  0
    3.2000   -0.0000    0.0000 C   0  0  0  0  0  0  0  0  0  0  0  0
    2.4001    1.3856    0.0000 C   0  0  0  0  0  0  0  0  0  0  0  0
    3.2000    2.7713    0.0000 H   0  0  0  0  0  0  0  0  0  0  0  0
    0.8001    1.3856    0.0000 C   0  0  0  0  0  0  0  0  0  0  0  0
   -0.0001    2.7713    0.0000 H   0  0  0  0  0  0  0  0  0  0  0  0
   -0.0001   -0.0000    0.0000 C   0  0  0  0  0  0  0  0  0  0  0  0
   -1.5999   -0.0000    0.0000 C   0  0  0  0  0  0  0  0  0  0  0  0
   -2.4001   -1.3857    0.0000 O   0  0  0  0  0  0  0  0  0  0  0  0
   -2.4001    1.3856    0.0000 N   0  0  0  0  0  0  0  0  0  0  0  0
   -4.0001    1.3856    0.0000 C   0  0  0  0  0  0  0  0  0  0  0  0
   -4.8000    2.7713    0.0000 C   0  0  0  0  0  0  0  0  0  0  0  0
   -4.0001    4.1569    0.0000 Cl  0  0  0  0  0  0  0  0  0  0  0  0
   -6.4001    2.7713    0.0000 C   0  0  0  0  0  0  0  0  0  0  0  0
   -7.1999    4.1569    0.0000 Cl  0  0  0  0  0  0  0  0  0  0  0  0
   -7.1999    1.3856    0.0000 C   0  0  0  0  0  0  0  0  0  0  0  0
   -8.8000    1.3856    0.0000 H   0  0  0  0  0  0  0  0  0  0  0  0
   -6.4001   -0.0000    0.0000 C   0  0  0  0  0  0  0  0  0  0  0  0
   -7.1999   -1.3857    0.0000 H   0  0  0  0  0  0  0  0  0  0  0  0
   -4.8000   -0.0000    0.0000 C   0  0  0  0  0  0  0  0  0  0  0  0
   -4.0001   -1.3857    0.0000 H   0  0  0  0  0  0  0  0  0  0  0  0
   -1.5999    2.7713    0.0000 H   0  0  0  0  0  0  0  0  0  0  0  0
    0.8001   -1.3857    0.0000 C   0  0  0  0  0  0  0  0  0  0  0  0
   -0.0001   -2.7713    0.0000 H   0  0  0  0  0  0  0  0  0  0  0  0
    2.4001   -1.3857    0.0000 C   0  0  0  0  0  0  0  0  0  0  0  0
    3.2000   -2.7713    0.0000 H   0  0  0  0  0  0  0  0  0  0  0  0
    6.9858   -0.5856    0.0000 H   0  0  0  0  0  0  0  0  0  0  0  0
    4.2144   -2.1856    0.0000 H   0  0  0  0  0  0  0  0  0  0  0  0
    7.9999   -4.3713    0.0000 H   0  0  0  0  0  0  0  0  0  0  0  0
    7.9999   -1.1713    0.0000 H   0  0  0  0  0  0  0  0  0  0  0  0
   11.2000   -2.7713    0.0000 H   0  0  0  0  0  0  0  0  0  0  0  0
   10.4001   -4.1570    0.0000 H   0  0  0  0  0  0  0  0  0  0  0  0
   10.4001   -1.3857    0.0000 H   0  0  0  0  0  0  0  0  0  0  0  0
  1  2  1  0  0  0  0
  2  3  1  0  0  0  0
  3  4  1  0  0  0  0
  4  5  1  0  0  0  0
  5  6  1  0  0  0  0
  6  7  4  0  0  0  0
  7  8  1  0  0  0  0
  7  9  4  0  0  0  0
  9 10  1  0  0  0  0
  9 11  4  0  0  0  0
 11 12  1  0  0  0  0
 12 13  2  0  0  0  0
 12 14  1  0  0  0  0
 14 15  1  0  0  0  0
 15 16  4  0  0  0  0
 16 17  1  0  0  0  0
 16 18  4  0  0  0  0
 18 19  1  0  0  0  0
 18 20  4  0  0  0  0
 20 21  1  0  0  0  0
 20 22  4  0  0  0  0
 22 23  1  0  0  0  0
 22 24  4  0  0  0  0
 24 15  4  0  0  0  0
 24 25  1  0  0  0  0
 14 26  1  0  0  0  0
 11 27  4  0  0  0  0
 27 28  1  0  0  0  0
 27 29  4  0  0  0  0
 29  6  4  0  0  0  0
 29 30  1  0  0  0  0
  4 31  1  0  0  0  0
  4 32  1  0  0  0  0
  2 33  1  0  0  0  0
  2 34  1  0  0  0  0
  1 35  1  0  0  0  0
  1 36  1  0  0  0  0
  1 37  1  0  0  0  0
M  END
> <CAS>
79540-50-4

> <NAME>
Etobenzanid

> <preferred_name>
Etobenzanid

> <iupac>
N-(2,3-dichlorophenyl)-4-(ethoxymethoxy)benzamide

> <SMILES>
CCOCOc1ccc(cc1)C(=O)Nc1cccc(Cl)c1Cl

> <Canonical_QSARr>
CCOCOc1ccc(cc1)C(=O)Nc1cccc(Cl)c1Cl

> <InChI_Code_QSARr>
InChI=1S/C16H15Cl2NO3/c1-2-21-10-22-12-8-6-11(7-9-12)16(20)19-14-5-3-4-13(17)15(14)18/h3-9H,2,10H2,1H3,(H,19,20)

> <InChI Key_QSARr>
ICWUMLXQKFTJMH-UHFFFAOYSA-N

> <Salt_Solvent>
?

> <WS Temperature>
25

> <WS Reference>
TOMLIN,C (1997)

> <dsstox_substance_id>
DTXSID6058188

> <LogMolar>
-5.568

$$$$
80060-09-9
  -INDIGO-01081615412D

 59 60  0  0  0  0  0  0  0  0999 V2000
   -2.6284    1.2256    0.0000 C   0  0  0  0  0  0  0  0  0  0  0  0
   -1.6000    0.0000    0.0000 N   0  0  0  0  0  0  0  0  0  0  0  0
    0.0000    0.0000    0.0000 C   0  0  0  0  0  0  0  0  0  0  0  0
    1.5757   -0.2779    0.0000 C   0  0  0  0  0  0  0  0  0  0  0  0
    3.1514   -0.5556    0.0000 H   0  0  0  0  0  0  0  0  0  0  0  0
    2.3756   -1.6634    0.0000 H   0  0  0  0  0  0  0  0  0  0  0  0
    2.6041    0.9479    0.0000 H   0  0  0  0  0  0  0  0  0  0  0  0
    0.0000   -1.6000    0.0000 C   0  0  0  0  0  0  0  0  0  0  0  0
    0.0000   -3.1999    0.0000 H   0  0  0  0  0  0  0  0  0  0  0  0
    1.3856   -2.4000    0.0000 H   0  0  0  0  0  0  0  0  0  0  0  0
   -1.3855   -2.4000    0.0000 H   0  0  0  0  0  0  0  0  0  0  0  0
    0.0000    1.5999    0.0000 C   0  0  0  0  0  0  0  0  0  0  0  0
    1.3856    2.4000    0.0000 H   0  0  0  0  0  0  0  0  0  0  0  0
    1.5036    1.0527    0.0000 H   0  0  0  0  0  0  0  0  0  0  0  0
   -1.5036    1.0527    0.0000 H   0  0  0  0  0  0  0  0  0  0  0  0
   -2.1473   -1.5034    0.0000 H   0  0  0  0  0  0  0  0  0  0  0  0
   -4.2040    0.9479    0.0000 N   0  0  0  0  0  0  0  0  0  0  0  0
   -5.5899    1.7478    0.0000 C   0  0  0  0  0  0  0  0  0  0  0  0
   -5.5899    3.3479    0.0000 C   0  0  0  0  0  0  0  0  0  0  0  0
   -4.2040    4.1478    0.0000 C   0  0  0  0  0  0  0  0  0  0  0  0
   -2.8185    4.9478    0.0000 C   0  0  0  0  0  0  0  0  0  0  0  0
   -1.4330    5.7479    0.0000 H   0  0  0  0  0  0  0  0  0  0  0  0
   -2.5408    6.5235    0.0000 H   0  0  0  0  0  0  0  0  0  0  0  0
   -1.4330    4.1478    0.0000 H   0  0  0  0  0  0  0  0  0  0  0  0
   -5.0042    5.5335    0.0000 C   0  0  0  0  0  0  0  0  0  0  0  0
   -6.0326    6.7591    0.0000 H   0  0  0  0  0  0  0  0  0  0  0  0
   -4.4569    7.0370    0.0000 H   0  0  0  0  0  0  0  0  0  0  0  0
   -3.4285    5.8113    0.0000 H   0  0  0  0  0  0  0  0  0  0  0  0
   -3.4042    2.7621    0.0000 H   0  0  0  0  0  0  0  0  0  0  0  0
   -6.9754    4.1478    0.0000 C   0  0  0  0  0  0  0  0  0  0  0  0
   -6.9754    5.7479    0.0000 H   0  0  0  0  0  0  0  0  0  0  0  0
   -8.3609    3.3479    0.0000 C   0  0  0  0  0  0  0  0  0  0  0  0
   -9.7468    4.1478    0.0000 O   0  0  0  0  0  0  0  0  0  0  0  0
  -11.3224    3.8699    0.0000 C   0  0  0  0  0  0  0  0  0  0  0  0
  -12.3508    5.0957    0.0000 C   0  0  0  0  0  0  0  0  0  0  0  0
  -11.8035    6.5991    0.0000 H   0  0  0  0  0  0  0  0  0  0  0  0
  -13.9265    4.8178    0.0000 C   0  0  0  0  0  0  0  0  0  0  0  0
  -14.9549    6.0435    0.0000 H   0  0  0  0  0  0  0  0  0  0  0  0
  -14.4738    3.3143    0.0000 C   0  0  0  0  0  0  0  0  0  0  0  0
  -16.0495    3.0366    0.0000 H   0  0  0  0  0  0  0  0  0  0  0  0
  -13.4454    2.0887    0.0000 C   0  0  0  0  0  0  0  0  0  0  0  0
  -13.9924    0.5851    0.0000 H   0  0  0  0  0  0  0  0  0  0  0  0
  -11.8697    2.3665    0.0000 C   0  0  0  0  0  0  0  0  0  0  0  0
  -10.8411    1.1409    0.0000 H   0  0  0  0  0  0  0  0  0  0  0  0
   -8.3609    1.7478    0.0000 C   0  0  0  0  0  0  0  0  0  0  0  0
   -9.7468    0.9479    0.0000 H   0  0  0  0  0  0  0  0  0  0  0  0
   -6.9754    0.9479    0.0000 C   0  0  0  0  0  0  0  0  0  0  0  0
   -6.9754   -0.6522    0.0000 C   0  0  0  0  0  0  0  0  0  0  0  0
   -6.6976   -2.2278    0.0000 C   0  0  0  0  0  0  0  0  0  0  0  0
   -6.4199   -3.8035    0.0000 H   0  0  0  0  0  0  0  0  0  0  0  0
   -5.1940   -2.7752    0.0000 H   0  0  0  0  0  0  0  0  0  0  0  0
   -7.9232   -3.2564    0.0000 H   0  0  0  0  0  0  0  0  0  0  0  0
   -8.5754   -0.6522    0.0000 C   0  0  0  0  0  0  0  0  0  0  0  0
   -9.3755   -2.0377    0.0000 H   0  0  0  0  0  0  0  0  0  0  0  0
  -10.1754   -0.6522    0.0000 H   0  0  0  0  0  0  0  0  0  0  0  0
   -7.7755   -2.0377    0.0000 H   0  0  0  0  0  0  0  0  0  0  0  0
   -5.3754   -0.6522    0.0000 H   0  0  0  0  0  0  0  0  0  0  0  0
   -4.2040   -0.6522    0.0000 H   0  0  0  0  0  0  0  0  0  0  0  0
   -2.0814    2.7292    0.0000 S   0  0  0  0  0  0  0  0  0  0  0  0
  1  2  1  0  0  0  0
  2  3  1  0  0  0  0
  3  4  1  0  0  0  0
  4  5  1  0  0  0  0
  4  6  1  0  0  0  0
  4  7  1  0  0  0  0
  3  8  1  0  0  0  0
  8  9  1  0  0  0  0
  8 10  1  0  0  0  0
  8 11  1  0  0  0  0
  3 12  1  0  0  0  0
 12 13  1  0  0  0  0
 12 14  1  0  0  0  0
 12 15  1  0  0  0  0
  2 16  1  0  0  0  0
  1 17  1  0  0  0  0
 17 18  1  0  0  0  0
 18 19  4  0  0  0  0
 19 20  1  0  0  0  0
 20 21  1  0  0  0  0
 21 22  1  0  0  0  0
 21 23  1  0  0  0  0
 21 24  1  0  0  0  0
 20 25  1  0  0  0  0
 25 26  1  0  0  0  0
 25 27  1  0  0  0  0
 25 28  1  0  0  0  0
 20 29  1  0  0  0  0
 19 30  4  0  0  0  0
 30 31  1  0  0  0  0
 30 32  4  0  0  0  0
 32 33  1  0  0  0  0
 33 34  1  0  0  0  0
 34 35  4  0  0  0  0
 35 36  1  0  0  0  0
 35 37  4  0  0  0  0
 37 38  1  0  0  0  0
 37 39  4  0  0  0  0
 39 40  1  0  0  0  0
 39 41  4  0  0  0  0
 41 42  1  0  0  0  0
 41 43  4  0  0  0  0
 43 34  4  0  0  0  0
 43 44  1  0  0  0  0
 32 45  4  0  0  0  0
 45 46  1  0  0  0  0
 45 47  4  0  0  0  0
 47 18  4  0  0  0  0
 47 48  1  0  0  0  0
 48 49  1  0  0  0  0
 49 50  1  0  0  0  0
 49 51  1  0  0  0  0
 49 52  1  0  0  0  0
 48 53  1  0  0  0  0
 53 54  1  0  0  0  0
 53 55  1  0  0  0  0
 53 56  1  0  0  0  0
 48 57  1  0  0  0  0
 17 58  1  0  0  0  0
  1 59  2  0  0  0  0
M  END
> <CAS>
80060-09-9

> <NAME>
Diafenthiuron

> <preferred_name>
Diafenthiuron

> <iupac>
1-tert-butyl-3-[4-phenoxy-2,6-di(propan-2-yl)phenyl]thiourea

> <SMILES>
CC(C)(C)NC(=S)Nc1c(cc(cc1C(C)C)Oc1ccccc1)C(C)C

> <Canonical_QSARr>
CC(C)(C)NC(=S)Nc1c(cc(cc1C(C)C)Oc1ccccc1)C(C)C

> <InChI_Code_QSARr>
InChI=1S/C23H32N2OS/c1-15(2)19-13-18(26-17-11-9-8-10-12-17)14-20(16(3)4)21(19)24-22(27)25-23(5,6)7/h8-16H,1-7H3,(H2,24,25,27)

> <InChI Key_QSARr>
WOWBFOBYOAGEEA-UHFFFAOYSA-N

> <Salt_Solvent>
?

> <WS Temperature>
25

> <WS Reference>
TOMLIN,C (1997)

> <dsstox_substance_id>
DTXSID1041845

> <LogMolar>
-6.8068

$$$$
81335-77-5
  -INDIGO-01081615412D

 40 41  0  0  0  0  0  0  0  0999 V2000
   -5.3309   -0.0191    0.0000 N   0  0  0  1  0  0  0  0  0  0  0  0
   -4.0362    0.9214    0.0000 C   0  0  0  0  0  0  0  0  0  0  0  0
   -2.5746    0.2705    0.0000 C   0  0  0  0  0  0  0  0  0  0  0  0
   -2.2419   -1.2945    0.0000 N   0  0  0  0  0  0  0  0  0  0  0  0
   -3.3126   -2.4835    0.0000 H   0  0  0  0  0  0  0  0  0  0  0  0
   -0.6507   -1.4616    0.0000 C   0  0  0  0  0  0  0  0  0  0  0  0
   -0.3729   -3.0374    0.0000 O   0  0  0  0  0  0  0  0  0  0  0  0
    0.0001    0.0000    0.0000 C   0  0  0  0  0  0  0  0  0  0  0  0
    0.9405    1.2944    0.0000 C   0  0  0  0  0  0  0  0  0  0  0  0
    1.3814    2.8324    0.0000 C   0  0  0  0  0  0  0  0  0  0  0  0
    1.8224    4.3705    0.0000 H   0  0  0  0  0  0  0  0  0  0  0  0
    0.2701    3.9833    0.0000 H   0  0  0  0  0  0  0  0  0  0  0  0
    2.9340    3.2196    0.0000 H   0  0  0  0  0  0  0  0  0  0  0  0
    2.3785    0.5930    0.0000 C   0  0  0  0  0  0  0  0  0  0  0  0
    3.7051    1.4877    0.0000 H   0  0  0  0  0  0  0  0  0  0  0  0
    3.8166   -0.1083    0.0000 H   0  0  0  0  0  0  0  0  0  0  0  0
    2.2668    2.1891    0.0000 H   0  0  0  0  0  0  0  0  0  0  0  0
   -0.4976    1.9958    0.0000 H   0  0  0  0  0  0  0  0  0  0  0  0
    1.2257   -1.0285    0.0000 C   0  0  0  0  0  0  0  0  0  0  0  0
    2.4514   -2.0569    0.0000 H   0  0  0  0  0  0  0  0  0  0  0  0
    0.9479   -2.6041    0.0000 H   0  0  0  0  0  0  0  0  0  0  0  0
    2.7293   -0.4813    0.0000 H   0  0  0  0  0  0  0  0  0  0  0  0
   -1.1891    1.0707    0.0000 N   0  0  0  0  0  0  0  0  0  0  0  0
   -4.2035    2.5126    0.0000 C   0  0  0  0  0  0  0  0  0  0  0  0
   -2.9091    3.4530    0.0000 C   0  0  0  0  0  0  0  0  0  0  0  0
   -3.0764    5.0444    0.0000 O   0  0  0  0  0  0  0  0  0  0  0  0
   -1.7820    5.9848    0.0000 H   0  0  0  0  0  0  0  0  0  0  0  0
   -1.4475    2.8023    0.0000 O   0  0  0  0  0  0  0  0  0  0  0  0
   -5.6654    3.1634    0.0000 C   0  0  0  0  0  0  0  0  0  0  0  0
   -5.8324    4.7547    0.0000 H   0  0  0  0  0  0  0  0  0  0  0  0
   -6.9598    2.2230    0.0000 C   0  0  0  0  0  0  0  0  0  0  0  0
   -8.4214    2.8737    0.0000 C   0  0  0  0  0  0  0  0  0  0  0  0
   -9.8831    3.5245    0.0000 C   0  0  0  0  0  0  0  0  0  0  0  0
  -11.3447    4.1752    0.0000 H   0  0  0  0  0  0  0  0  0  0  0  0
  -11.1774    2.5841    0.0000 H   0  0  0  0  0  0  0  0  0  0  0  0
  -10.0503    5.1158    0.0000 H   0  0  0  0  0  0  0  0  0  0  0  0
   -9.0722    1.4121    0.0000 H   0  0  0  0  0  0  0  0  0  0  0  0
   -7.7706    4.3354    0.0000 H   0  0  0  0  0  0  0  0  0  0  0  0
   -6.7925    0.6317    0.0000 C   0  0  0  0  0  0  0  0  0  0  0  0
   -8.0869   -0.3088    0.0000 H   0  0  0  0  0  0  0  0  0  0  0  0
  1  2  4  0  0  0  0
  2  3  1  0  0  0  0
  3  4  1  0  0  0  0
  4  5  1  0  0  0  0
  4  6  1  0  0  0  0
  6  7  2  0  0  0  0
  6  8  1  0  0  0  0
  8  9  1  0  0  0  0
  9 10  1  0  0  0  0
 10 11  1  0  0  0  0
 10 12  1  0  0  0  0
 10 13  1  0  0  0  0
  9 14  1  0  0  0  0
 14 15  1  0  0  0  0
 14 16  1  0  0  0  0
 14 17  1  0  0  0  0
  9 18  1  0  0  0  0
  8 19  1  0  0  0  0
 19 20  1  0  0  0  0
 19 21  1  0  0  0  0
 19 22  1  0  0  0  0
  8 23  1  0  0  0  0
 23  3  2  0  0  0  0
  2 24  4  0  0  0  0
 24 25  1  0  0  0  0
 25 26  1  0  0  0  0
 26 27  1  0  0  0  0
 25 28  2  0  0  0  0
 24 29  4  0  0  0  0
 29 30  1  0  0  0  0
 29 31  4  0  0  0  0
 31 32  1  0  0  0  0
 32 33  1  0  0  0  0
 33 34  1  0  0  0  0
 33 35  1  0  0  0  0
 33 36  1  0  0  0  0
 32 37  1  0  0  0  0
 32 38  1  0  0  0  0
 31 39  4  0  0  0  0
 39  1  4  0  0  0  0
 39 40  1  0  0  0  0
M  END
> <CAS>
81335-77-5

> <NAME>
Imazethapyr

> <preferred_name>
Imazethapyr

> <iupac>
5-ethyl-2-[4-methyl-5-oxo-4-(propan-2-yl)-4,5-dihydro-1H-imidazol-2-yl]pyridine-3-carboxylic acid

> <SMILES>
CCc1cc(C(O)=O)c([n]c1)C1NC(=O)C(C)(N=1)C(C)C

> <Canonical_QSARr>
CCc1cc(C(O)=O)c([n]c1)C1NC(=O)C(C)(N=1)C(C)C

> <InChI_Code_QSARr>
InChI=1S/C15H19N3O3/c1-5-9-6-10(13(19)20)11(16-7-9)12-17-14(21)15(4,18-12)8(2)3/h6-8H,5H2,1-4H3,(H,19,20)(H,17,18,21)

> <InChI Key_QSARr>
XVOKUMIPKHGGTN-UHFFFAOYSA-N

> <Salt_Solvent>
?

> <WS Temperature>
25

> <WS Reference>
TOMLIN,C (1994)

> <dsstox_substance_id>
DTXSID3024287

> <LogMolar>
-2.3153

$$$$
81475-36-7
  -INDIGO-01081615412D

 45 45  0  0  0  0  0  0  0  0999 V2000
   -8.0001   -2.7713    0.0000 O   0  0  0  0  0  0  0  0  0  0  0  0
   -8.8001   -1.3857    0.0000 C   0  0  0  0  0  0  0  0  0  0  0  0
  -10.4001   -1.3857    0.0000 C   0  0  0  0  0  0  0  0  0  0  0  0
  -11.2001   -0.0000    0.0000 C   0  0  0  0  0  0  0  0  0  0  0  0
  -10.4001    1.3857    0.0000 H   0  0  0  0  0  0  0  0  0  0  0  0
  -12.8000   -0.0000    0.0000 N   0  0  0  1  0  0  0  0  0  0  0  0
  -13.6000   -1.3857    0.0000 C   0  0  0  0  0  0  0  0  0  0  0  0
  -15.2000   -1.3857    0.0000 H   0  0  0  0  0  0  0  0  0  0  0  0
  -12.8000   -2.7713    0.0000 C   0  0  0  0  0  0  0  0  0  0  0  0
  -13.6000   -4.1569    0.0000 H   0  0  0  0  0  0  0  0  0  0  0  0
  -11.2001   -2.7713    0.0000 C   0  0  0  0  0  0  0  0  0  0  0  0
  -10.4001   -4.1569    0.0000 H   0  0  0  0  0  0  0  0  0  0  0  0
   -8.0001   -0.0000    0.0000 N   0  0  0  0  0  0  0  0  0  0  0  0
   -6.4001   -0.0000    0.0000 C   0  0  0  0  0  0  0  0  0  0  0  0
   -4.8002   -0.0000    0.0000 C   0  0  0  0  0  0  0  0  0  0  0  0
   -3.2002   -0.0000    0.0000 C   0  0  0  0  0  0  0  0  0  0  0  0
   -1.5998   -0.0000    0.0000 C   0  0  0  0  0  0  0  0  0  0  0  0
    0.0001   -0.0000    0.0000 C   0  0  0  0  0  0  0  0  0  0  0  0
    1.6001   -0.0000    0.0000 C   0  0  0  0  0  0  0  0  0  0  0  0
    3.2001   -0.0000    0.0000 C   0  0  0  0  0  0  0  0  0  0  0  0
    4.8001   -0.0000    0.0000 C   0  0  0  0  0  0  0  0  0  0  0  0
    6.4000   -0.0000    0.0000 C   0  0  0  0  0  0  0  0  0  0  0  0
    8.0000   -0.0000    0.0000 C   0  0  0  0  0  0  0  0  0  0  0  0
    9.6000   -0.0000    0.0000 H   0  0  0  0  0  0  0  0  0  0  0  0
    8.8000    1.3857    0.0000 H   0  0  0  0  0  0  0  0  0  0  0  0
    8.8000   -1.3857    0.0000 H   0  0  0  0  0  0  0  0  0  0  0  0
    6.4000    1.6000    0.0000 H   0  0  0  0  0  0  0  0  0  0  0  0
    6.4000   -1.6000    0.0000 H   0  0  0  0  0  0  0  0  0  0  0  0
    4.8001    1.6000    0.0000 H   0  0  0  0  0  0  0  0  0  0  0  0
    4.8001   -1.6000    0.0000 H   0  0  0  0  0  0  0  0  0  0  0  0
    3.2001    1.6000    0.0000 H   0  0  0  0  0  0  0  0  0  0  0  0
    3.2001   -1.6000    0.0000 H   0  0  0  0  0  0  0  0  0  0  0  0
    1.6001    1.6000    0.0000 H   0  0  0  0  0  0  0  0  0  0  0  0
    1.6001   -1.6000    0.0000 H   0  0  0  0  0  0  0  0  0  0  0  0
    0.0001    1.6000    0.0000 H   0  0  0  0  0  0  0  0  0  0  0  0
    0.0001   -1.6000    0.0000 H   0  0  0  0  0  0  0  0  0  0  0  0
   -1.5998    1.6000    0.0000 H   0  0  0  0  0  0  0  0  0  0  0  0
   -1.5998   -1.6000    0.0000 H   0  0  0  0  0  0  0  0  0  0  0  0
   -3.2002    1.6000    0.0000 H   0  0  0  0  0  0  0  0  0  0  0  0
   -3.2002   -1.6000    0.0000 H   0  0  0  0  0  0  0  0  0  0  0  0
   -4.8002    1.6000    0.0000 H   0  0  0  0  0  0  0  0  0  0  0  0
   -4.8002   -1.6000    0.0000 H   0  0  0  0  0  0  0  0  0  0  0  0
   -6.4001    1.6000    0.0000 H   0  0  0  0  0  0  0  0  0  0  0  0
   -6.4001   -1.6000    0.0000 H   0  0  0  0  0  0  0  0  0  0  0  0
   -8.8001    1.3857    0.0000 H   0  0  0  0  0  0  0  0  0  0  0  0
  1  2  2  0  0  0  0
  2  3  1  0  0  0  0
  3  4  4  0  0  0  0
  4  5  1  0  0  0  0
  4  6  4  0  0  0  0
  6  7  4  0  0  0  0
  7  8  1  0  0  0  0
  7  9  4  0  0  0  0
  9 10  1  0  0  0  0
  9 11  4  0  0  0  0
 11  3  4  0  0  0  0
 11 12  1  0  0  0  0
  2 13  1  0  0  0  0
 13 14  1  0  0  0  0
 14 15  1  0  0  0  0
 15 16  1  0  0  0  0
 16 17  1  0  0  0  0
 17 18  1  0  0  0  0
 18 19  1  0  0  0  0
 19 20  1  0  0  0  0
 20 21  1  0  0  0  0
 21 22  1  0  0  0  0
 22 23  1  0  0  0  0
 23 24  1  0  0  0  0
 23 25  1  0  0  0  0
 23 26  1  0  0  0  0
 22 27  1  0  0  0  0
 22 28  1  0  0  0  0
 21 29  1  0  0  0  0
 21 30  1  0  0  0  0
 20 31  1  0  0  0  0
 20 32  1  0  0  0  0
 19 33  1  0  0  0  0
 19 34  1  0  0  0  0
 18 35  1  0  0  0  0
 18 36  1  0  0  0  0
 17 37  1  0  0  0  0
 17 38  1  0  0  0  0
 16 39  1  0  0  0  0
 16 40  1  0  0  0  0
 15 41  1  0  0  0  0
 15 42  1  0  0  0  0
 14 43  1  0  0  0  0
 14 44  1  0  0  0  0
 13 45  1  0  0  0  0
M  END
> <CAS>
81475-36-7

> <NAME>
3-Pyridinecarboxamide, N-decyl-

> <preferred_name>
N-decylpyridine-3-carboxamide

> <iupac>
C16H26N2O

> <SMILES>
CCCCCCCCCCNC(=O)c1ccc[n]c1

> <Canonical_QSARr>
CCCCCCCCCCNC(=O)c1ccc[n]c1

> <InChI_Code_QSARr>
InChI=1S/C16H26N2O/c1-2-3-4-5-6-7-8-9-13-18-16(19)15-11-10-12-17-14-15/h10-12,14H,2-9,13H2,1H3,(H,18,19)

> <InChI Key_QSARr>
STKCVSYDRUHCAT-UHFFFAOYSA-N

> <Salt_Solvent>
?

> <WS Temperature>
25

> <WS Reference>
BEILSTEIN

> <dsstox_substance_id>
DTXSID30332664

> <LogMolar>
-3.0765

$$$$
82097-50-5
  -INDIGO-01081615412D

 42 43  0  0  0  0  0  0  0  0999 V2000
    0.0001   -0.0001    0.0000 C   0  0  0  0  0  0  0  0  0  0  0  0
    1.3857    0.8001    0.0000 S   0  0  0  0  0  0  0  0  0  0  0  0
    2.1856   -0.5856    0.0000 O   0  0  0  0  0  0  0  0  0  0  0  0
    2.7713    1.6001    0.0000 N   0  0  0  0  0  0  0  0  0  0  0  0
    4.1569    0.8001    0.0000 C   0  0  0  0  0  0  0  0  0  0  0  0
    5.5425    1.6001    0.0000 N   0  0  0  0  0  0  0  0  0  0  0  0
    6.9281    0.8001    0.0000 C   0  0  0  0  0  0  0  0  0  0  0  0
    6.9281   -0.8001    0.0000 N   0  0  0  1  0  0  0  0  0  0  0  0
    8.3140   -1.6001    0.0000 C   0  0  0  0  0  0  0  0  0  0  0  0
    8.3140   -3.2000    0.0000 O   0  0  0  0  0  0  0  0  0  0  0  0
    9.6996   -4.0000    0.0000 C   0  0  0  0  0  0  0  0  0  0  0  0
   11.0852   -4.8000    0.0000 H   0  0  0  0  0  0  0  0  0  0  0  0
    9.6996   -5.6000    0.0000 H   0  0  0  0  0  0  0  0  0  0  0  0
   11.0852   -3.2000    0.0000 H   0  0  0  0  0  0  0  0  0  0  0  0
    9.6996   -0.8001    0.0000 N   0  0  0  1  0  0  0  0  0  0  0  0
    9.6996    0.8001    0.0000 C   0  0  0  0  0  0  0  0  0  0  0  0
   11.0852    1.6001    0.0000 C   0  0  0  0  0  0  0  0  0  0  0  0
   12.4708    2.4000    0.0000 H   0  0  0  0  0  0  0  0  0  0  0  0
   12.4708    0.8001    0.0000 H   0  0  0  0  0  0  0  0  0  0  0  0
   11.0852    3.2000    0.0000 H   0  0  0  0  0  0  0  0  0  0  0  0
    8.3140    1.6001    0.0000 N   0  0  0  1  0  0  0  0  0  0  0  0
    5.5425    3.2000    0.0000 H   0  0  0  0  0  0  0  0  0  0  0  0
    4.1569   -0.8001    0.0000 O   0  0  0  0  0  0  0  0  0  0  0  0
    2.7713    3.2000    0.0000 H   0  0  0  0  0  0  0  0  0  0  0  0
    0.5856    2.1856    0.0000 O   0  0  0  0  0  0  0  0  0  0  0  0
   -1.3858    0.8001    0.0000 C   0  0  0  0  0  0  0  0  0  0  0  0
   -1.3858    2.4000    0.0000 O   0  0  0  0  0  0  0  0  0  0  0  0
   -2.7714    3.2000    0.0000 C   0  0  0  0  0  0  0  0  0  0  0  0
   -4.1570    4.0000    0.0000 C   0  0  0  0  0  0  0  0  0  0  0  0
   -5.5426    4.8000    0.0000 Cl  0  0  0  0  0  0  0  0  0  0  0  0
   -4.1570    5.6000    0.0000 H   0  0  0  0  0  0  0  0  0  0  0  0
   -5.5426    3.2000    0.0000 H   0  0  0  0  0  0  0  0  0  0  0  0
   -1.9712    4.5857    0.0000 H   0  0  0  0  0  0  0  0  0  0  0  0
   -3.5712    1.8144    0.0000 H   0  0  0  0  0  0  0  0  0  0  0  0
   -2.7714   -0.0001    0.0000 C   0  0  0  0  0  0  0  0  0  0  0  0
   -4.1570    0.8001    0.0000 H   0  0  0  0  0  0  0  0  0  0  0  0
   -2.7714   -1.6001    0.0000 C   0  0  0  0  0  0  0  0  0  0  0  0
   -4.1570   -2.4000    0.0000 H   0  0  0  0  0  0  0  0  0  0  0  0
   -1.3858   -2.4000    0.0000 C   0  0  0  0  0  0  0  0  0  0  0  0
   -1.3858   -4.0000    0.0000 H   0  0  0  0  0  0  0  0  0  0  0  0
    0.0001   -1.6001    0.0000 C   0  0  0  0  0  0  0  0  0  0  0  0
    1.3857   -2.4000    0.0000 H   0  0  0  0  0  0  0  0  0  0  0  0
  1  2  1  0  0  0  0
  2  3  2  0  0  0  0
  2  4  1  0  0  0  0
  4  5  1  0  0  0  0
  5  6  1  0  0  0  0
  6  7  1  0  0  0  0
  7  8  4  0  0  0  0
  8  9  4  0  0  0  0
  9 10  1  0  0  0  0
 10 11  1  0  0  0  0
 11 12  1  0  0  0  0
 11 13  1  0  0  0  0
 11 14  1  0  0  0  0
  9 15  4  0  0  0  0
 15 16  4  0  0  0  0
 16 17  1  0  0  0  0
 17 18  1  0  0  0  0
 17 19  1  0  0  0  0
 17 20  1  0  0  0  0
 16 21  4  0  0  0  0
 21  7  4  0  0  0  0
  6 22  1  0  0  0  0
  5 23  2  0  0  0  0
  4 24  1  0  0  0  0
  2 25  2  0  0  0  0
  1 26  4  0  0  0  0
 26 27  1  0  0  0  0
 27 28  1  0  0  0  0
 28 29  1  0  0  0  0
 29 30  1  0  0  0  0
 29 31  1  0  0  0  0
 29 32  1  0  0  0  0
 28 33  1  0  0  0  0
 28 34  1  0  0  0  0
 26 35  4  0  0  0  0
 35 36  1  0  0  0  0
 35 37  4  0  0  0  0
 37 38  1  0  0  0  0
 37 39  4  0  0  0  0
 39 40  1  0  0  0  0
 39 41  4  0  0  0  0
 41  1  4  0  0  0  0
 41 42  1  0  0  0  0
M  END
> <CAS>
82097-50-5

> <NAME>
Triasulfuron

> <preferred_name>
Triasulfuron

> <iupac>
2-(2-chloroethoxy)-N-[(4-methoxy-6-methyl-1,3,5-triazin-2-yl)carbamoyl]benzenesulfonamide

> <SMILES>
Cc1[n]c(NC(=O)NS(=O)(=O)c2ccccc2OCCCl)[n]c([n]1)OC

> <Canonical_QSARr>
Cc1[n]c(NC(=O)NS(=O)(=O)c2ccccc2OCCCl)[n]c([n]1)OC

> <InChI_Code_QSARr>
InChI=1S/C14H16ClN5O5S/c1-9-16-12(19-14(17-9)24-2)18-13(21)20-26(22,23)11-6-4-3-5-10(11)25-8-7-15/h3-6H,7-8H2,1-2H3,(H2,16,17,18,19,20,21)

> <InChI Key_QSARr>
XOPFESVZMSQIKC-UHFFFAOYSA-N

> <Salt_Solvent>
?

> <WS Temperature>
25

> <WS Reference>
TOMLIN,C (1997); pH 5

> <dsstox_substance_id>
DTXSID0024345

> <LogMolar>
-4.0989

$$$$
82560-54-1
  -INDIGO-01081615412D

 58 59  0  0  0  0  0  0  0  0999 V2000
   -6.5323    0.8474    0.0000 C   0  0  0  0  0  0  0  0  0  0  0  0
   -7.3323   -0.5382    0.0000 O   0  0  0  0  0  0  0  0  0  0  0  0
   -4.9321    0.8474    0.0000 O   0  0  0  0  0  0  0  0  0  0  0  0
   -4.1322   -0.5382    0.0000 C   0  0  0  0  0  0  0  0  0  0  0  0
   -4.9321   -1.9239    0.0000 C   0  0  0  0  0  0  0  0  0  0  0  0
   -6.5323   -1.9239    0.0000 H   0  0  0  0  0  0  0  0  0  0  0  0
   -4.1322   -3.3094    0.0000 C   0  0  0  0  0  0  0  0  0  0  0  0
   -4.9321   -4.6952    0.0000 H   0  0  0  0  0  0  0  0  0  0  0  0
   -2.5323   -3.3094    0.0000 C   0  0  0  0  0  0  0  0  0  0  0  0
   -1.7323   -4.6952    0.0000 H   0  0  0  0  0  0  0  0  0  0  0  0
   -1.7323   -1.9239    0.0000 C   0  0  0  0  0  0  0  0  0  0  0  0
   -0.1673   -1.5912    0.0000 C   0  0  0  0  0  0  0  0  0  0  0  0
    0.0000   -0.0000    0.0000 C   0  0  0  0  0  0  0  0  0  0  0  0
    1.5651   -0.3327    0.0000 C   0  0  0  0  0  0  0  0  0  0  0  0
    3.1301   -0.6654    0.0000 H   0  0  0  0  0  0  0  0  0  0  0  0
    2.6356    0.8563    0.0000 H   0  0  0  0  0  0  0  0  0  0  0  0
    2.3162   -1.7453    0.0000 H   0  0  0  0  0  0  0  0  0  0  0  0
    0.4945    1.5217    0.0000 C   0  0  0  0  0  0  0  0  0  0  0  0
    0.9889    3.0434    0.0000 H   0  0  0  0  0  0  0  0  0  0  0  0
   -0.5761    2.7107    0.0000 H   0  0  0  0  0  0  0  0  0  0  0  0
    2.0595    1.8543    0.0000 H   0  0  0  0  0  0  0  0  0  0  0  0
   -1.4617    0.6509    0.0000 O   0  0  0  0  0  0  0  0  0  0  0  0
   -2.5323   -0.5382    0.0000 C   0  0  0  0  0  0  0  0  0  0  0  0
    0.0000   -3.1824    0.0000 H   0  0  0  0  0  0  0  0  0  0  0  0
    1.2184   -2.3912    0.0000 H   0  0  0  0  0  0  0  0  0  0  0  0
   -7.3323    2.2331    0.0000 N   0  0  0  0  0  0  0  0  0  0  0  0
   -6.5323    3.6186    0.0000 C   0  0  0  0  0  0  0  0  0  0  0  0
   -5.7324    5.0044    0.0000 H   0  0  0  0  0  0  0  0  0  0  0  0
   -7.3323    5.0044    0.0000 H   0  0  0  0  0  0  0  0  0  0  0  0
   -4.9321    3.6186    0.0000 H   0  0  0  0  0  0  0  0  0  0  0  0
   -8.9322    2.2331    0.0000 S   0  0  0  0  0  0  0  0  0  0  0  0
  -10.3179    3.0331    0.0000 N   0  0  0  0  0  0  0  0  0  0  0  0
  -10.3179    4.6330    0.0000 C   0  0  0  0  0  0  0  0  0  0  0  0
  -10.0399    6.2086    0.0000 C   0  0  0  0  0  0  0  0  0  0  0  0
   -9.7623    7.7844    0.0000 H   0  0  0  0  0  0  0  0  0  0  0  0
   -8.5367    6.7559    0.0000 H   0  0  0  0  0  0  0  0  0  0  0  0
  -11.2659    7.2371    0.0000 H   0  0  0  0  0  0  0  0  0  0  0  0
  -11.9178    4.6330    0.0000 C   0  0  0  0  0  0  0  0  0  0  0  0
  -12.7180    6.0186    0.0000 H   0  0  0  0  0  0  0  0  0  0  0  0
  -13.5180    4.6330    0.0000 H   0  0  0  0  0  0  0  0  0  0  0  0
  -11.1178    6.0186    0.0000 H   0  0  0  0  0  0  0  0  0  0  0  0
   -8.7180    4.6330    0.0000 H   0  0  0  0  0  0  0  0  0  0  0  0
  -11.7036    2.2331    0.0000 C   0  0  0  0  0  0  0  0  0  0  0  0
  -13.0893    1.4329    0.0000 C   0  0  0  0  0  0  0  0  0  0  0  0
  -14.4750    0.6330    0.0000 C   0  0  0  0  0  0  0  0  0  0  0  0
  -14.4750   -0.9670    0.0000 O   0  0  0  0  0  0  0  0  0  0  0  0
  -15.8604   -1.7670    0.0000 C   0  0  0  0  0  0  0  0  0  0  0  0
  -17.2461   -2.5670    0.0000 C   0  0  0  0  0  0  0  0  0  0  0  0
  -18.6318   -3.3670    0.0000 H   0  0  0  0  0  0  0  0  0  0  0  0
  -17.2461   -4.1669    0.0000 H   0  0  0  0  0  0  0  0  0  0  0  0
  -18.6318   -1.7670    0.0000 H   0  0  0  0  0  0  0  0  0  0  0  0
  -15.0604   -3.1525    0.0000 H   0  0  0  0  0  0  0  0  0  0  0  0
  -16.6606   -0.3813    0.0000 H   0  0  0  0  0  0  0  0  0  0  0  0
  -15.8604    1.4329    0.0000 O   0  0  0  0  0  0  0  0  0  0  0  0
  -12.2893    0.0474    0.0000 H   0  0  0  0  0  0  0  0  0  0  0  0
  -13.8892    2.8187    0.0000 H   0  0  0  0  0  0  0  0  0  0  0  0
  -10.9036    0.8474    0.0000 H   0  0  0  0  0  0  0  0  0  0  0  0
  -12.5035    3.6186    0.0000 H   0  0  0  0  0  0  0  0  0  0  0  0
  1  2  2  0  0  0  0
  1  3  1  0  0  0  0
  3  4  1  0  0  0  0
  4  5  4  0  0  0  0
  5  6  1  0  0  0  0
  5  7  4  0  0  0  0
  7  8  1  0  0  0  0
  7  9  4  0  0  0  0
  9 10  1  0  0  0  0
  9 11  4  0  0  0  0
 11 12  1  0  0  0  0
 12 13  1  0  0  0  0
 13 14  1  0  0  0  0
 14 15  1  0  0  0  0
 14 16  1  0  0  0  0
 14 17  1  0  0  0  0
 13 18  1  0  0  0  0
 18 19  1  0  0  0  0
 18 20  1  0  0  0  0
 18 21  1  0  0  0  0
 13 22  1  0  0  0  0
 22 23  1  0  0  0  0
 23  4  4  0  0  0  0
 23 11  4  0  0  0  0
 12 24  1  0  0  0  0
 12 25  1  0  0  0  0
  1 26  1  0  0  0  0
 26 27  1  0  0  0  0
 27 28  1  0  0  0  0
 27 29  1  0  0  0  0
 27 30  1  0  0  0  0
 26 31  1  0  0  0  0
 31 32  1  0  0  0  0
 32 33  1  0  0  0  0
 33 34  1  0  0  0  0
 34 35  1  0  0  0  0
 34 36  1  0  0  0  0
 34 37  1  0  0  0  0
 33 38  1  0  0  0  0
 38 39  1  0  0  0  0
 38 40  1  0  0  0  0
 38 41  1  0  0  0  0
 33 42  1  0  0  0  0
 32 43  1  0  0  0  0
 43 44  1  0  0  0  0
 44 45  1  0  0  0  0
 45 46  1  0  0  0  0
 46 47  1  0  0  0  0
 47 48  1  0  0  0  0
 48 49  1  0  0  0  0
 48 50  1  0  0  0  0
 48 51  1  0  0  0  0
 47 52  1  0  0  0  0
 47 53  1  0  0  0  0
 45 54  2  0  0  0  0
 44 55  1  0  0  0  0
 44 56  1  0  0  0  0
 43 57  1  0  0  0  0
 43 58  1  0  0  0  0
M  END
> <CAS>
82560-54-1

> <NAME>
BENFURACARB

> <preferred_name>
Benfuracarb

> <iupac>
ethyl N-{[{[(2,2-dimethyl-2,3-dihydro-1-benzofuran-7-yl)oxy]carbonyl}(methyl)amino]sulfanyl}-N-propan-2-yl-beta-alaninate

> <SMILES>
CN(SN(CCC(=O)OCC)C(C)C)C(=O)Oc1cccc2CC(C)(C)Oc12

> <Canonical_QSARr>
CN(SN(CCC(=O)OCC)C(C)C)C(=O)Oc1cccc2CC(C)(C)Oc12

> <InChI_Code_QSARr>
InChI=1S/C20H30N2O5S/c1-7-25-17(23)11-12-22(14(2)3)28-21(6)19(24)26-16-10-8-9-15-13-20(4,5)27-18(15)16/h8-10,14H,7,11-13H2,1-6H3

> <InChI Key_QSARr>
FYZBOYWSHKHDMT-UHFFFAOYSA-N

> <Salt_Solvent>
?

> <WS Temperature>
20

> <WS Reference>
SHIU,WY ET AL. (1990)

> <dsstox_substance_id>
DTXSID2041622

> <LogMolar>
-4.7103

$$$$
83164-33-4
  -INDIGO-01081615412D

 39 41  0  0  0  0  0  0  0  0999 V2000
    4.0000    4.1569    0.0000 N   0  0  0  1  0  0  0  0  0  0  0  0
    4.8001    2.7712    0.0000 C   0  0  0  0  0  0  0  0  0  0  0  0
    4.0000    1.3857    0.0000 O   0  0  0  0  0  0  0  0  0  0  0  0
    2.4001    1.3856    0.0000 C   0  0  0  0  0  0  0  0  0  0  0  0
    1.6001    2.7712    0.0000 C   0  0  0  0  0  0  0  0  0  0  0  0
    2.3999    4.1569    0.0000 H   0  0  0  0  0  0  0  0  0  0  0  0
   -0.0001    2.7712    0.0000 C   0  0  0  0  0  0  0  0  0  0  0  0
   -0.7999    4.1569    0.0000 H   0  0  0  0  0  0  0  0  0  0  0  0
   -0.7999    1.3856    0.0000 C   0  0  0  0  0  0  0  0  0  0  0  0
   -2.4000    1.3856    0.0000 H   0  0  0  0  0  0  0  0  0  0  0  0
   -0.0001    0.0001    0.0000 C   0  0  0  0  0  0  0  0  0  0  0  0
   -0.7999   -1.3856    0.0000 C   0  0  0  0  0  0  0  0  0  0  0  0
   -1.5999   -2.7713    0.0000 F   0  0  0  0  0  0  0  0  0  0  0  0
   -2.4000   -1.3856    0.0000 F   0  0  0  0  0  0  0  0  0  0  0  0
   -0.0001   -2.7713    0.0000 F   0  0  0  0  0  0  0  0  0  0  0  0
    1.6001    0.0001    0.0000 C   0  0  0  0  0  0  0  0  0  0  0  0
    2.4001   -1.3856    0.0000 H   0  0  0  0  0  0  0  0  0  0  0  0
    6.3999    2.7712    0.0000 C   0  0  0  0  0  0  0  0  0  0  0  0
    7.2000    1.3856    0.0000 C   0  0  0  0  0  0  0  0  0  0  0  0
    8.8001    1.3857    0.0000 N   0  0  0  0  0  0  0  0  0  0  0  0
    9.5999    0.0001    0.0000 C   0  0  0  0  0  0  0  0  0  0  0  0
    8.8001   -1.3856    0.0000 C   0  0  0  0  0  0  0  0  0  0  0  0
    7.2000   -1.3856    0.0000 F   0  0  0  0  0  0  0  0  0  0  0  0
    9.5999   -2.7713    0.0000 C   0  0  0  0  0  0  0  0  0  0  0  0
    8.8001   -4.1569    0.0000 H   0  0  0  0  0  0  0  0  0  0  0  0
   11.2001   -2.7713    0.0000 C   0  0  0  0  0  0  0  0  0  0  0  0
   12.0001   -4.1569    0.0000 F   0  0  0  0  0  0  0  0  0  0  0  0
   12.0001   -1.3856    0.0000 C   0  0  0  0  0  0  0  0  0  0  0  0
   13.6000   -1.3856    0.0000 H   0  0  0  0  0  0  0  0  0  0  0  0
   11.2001    0.0001    0.0000 C   0  0  0  0  0  0  0  0  0  0  0  0
   12.0001    1.3856    0.0000 H   0  0  0  0  0  0  0  0  0  0  0  0
    9.5999    2.7712    0.0000 H   0  0  0  0  0  0  0  0  0  0  0  0
    6.3999    0.0001    0.0000 O   0  0  0  0  0  0  0  0  0  0  0  0
    7.2000    4.1569    0.0000 C   0  0  0  0  0  0  0  0  0  0  0  0
    8.8001    4.1569    0.0000 H   0  0  0  0  0  0  0  0  0  0  0  0
    6.3999    5.5425    0.0000 C   0  0  0  0  0  0  0  0  0  0  0  0
    7.2000    6.9282    0.0000 H   0  0  0  0  0  0  0  0  0  0  0  0
    4.8001    5.5425    0.0000 C   0  0  0  0  0  0  0  0  0  0  0  0
    4.0000    6.9282    0.0000 H   0  0  0  0  0  0  0  0  0  0  0  0
  1  2  4  0  0  0  0
  2  3  1  0  0  0  0
  3  4  1  0  0  0  0
  4  5  4  0  0  0  0
  5  6  1  0  0  0  0
  5  7  4  0  0  0  0
  7  8  1  0  0  0  0
  7  9  4  0  0  0  0
  9 10  1  0  0  0  0
  9 11  4  0  0  0  0
 11 12  1  0  0  0  0
 12 13  1  0  0  0  0
 12 14  1  0  0  0  0
 12 15  1  0  0  0  0
 11 16  4  0  0  0  0
 16  4  4  0  0  0  0
 16 17  1  0  0  0  0
  2 18  4  0  0  0  0
 18 19  1  0  0  0  0
 19 20  1  0  0  0  0
 20 21  1  0  0  0  0
 21 22  4  0  0  0  0
 22 23  1  0  0  0  0
 22 24  4  0  0  0  0
 24 25  1  0  0  0  0
 24 26  4  0  0  0  0
 26 27  1  0  0  0  0
 26 28  4  0  0  0  0
 28 29  1  0  0  0  0
 28 30  4  0  0  0  0
 30 21  4  0  0  0  0
 30 31  1  0  0  0  0
 20 32  1  0  0  0  0
 19 33  2  0  0  0  0
 18 34  4  0  0  0  0
 34 35  1  0  0  0  0
 34 36  4  0  0  0  0
 36 37  1  0  0  0  0
 36 38  4  0  0  0  0
 38  1  4  0  0  0  0
 38 39  1  0  0  0  0
M  END
> <CAS>
83164-33-4

> <NAME>
DIFLUFENICAN

> <preferred_name>
Diflufenican

> <iupac>
N-(2,4-difluorophenyl)-2-[3-(trifluoromethyl)phenoxy]pyridine-3-carboxamide

> <SMILES>
O=C(Nc1ccc(F)cc1F)c1ccc[n]c1Oc1cc(ccc1)C(F)(F)F

> <Canonical_QSARr>
O=C(Nc1ccc(F)cc1F)c1ccc[n]c1Oc1cc(ccc1)C(F)(F)F

> <InChI_Code_QSARr>
InChI=1S/C19H11F5N2O2/c20-12-6-7-16(15(21)10-12)26-17(27)14-5-2-8-25-18(14)28-13-4-1-3-11(9-13)19(22,23)24/h1-10H,(H,26,27)

> <InChI Key_QSARr>
WYEHFWKAOXOVJD-UHFFFAOYSA-N

> <Salt_Solvent>
?

> <WS Temperature>
25

> <WS Reference>
TOMLIN,C (1997); <0.05 mg/L

> <dsstox_substance_id>
DTXSID4041494

> <LogMolar>
-6.8969

$$$$
83733-82-8
  -INDIGO-01081615412D

 40 40  0  0  0  0  0  0  0  0999 V2000
    4.2242    4.5888    0.0000 C   0  0  0  0  0  0  0  0  0  0  0  0
    2.9985    3.5604    0.0000 C   0  0  0  0  0  0  0  0  0  0  0  0
    1.7729    2.5319    0.0000 C   0  0  0  0  0  0  0  0  0  0  0  0
    0.5473    1.5035    0.0000 C   0  0  0  0  0  0  0  0  0  0  0  0
   -0.4812    2.7292    0.0000 O   0  0  0  0  0  0  0  0  0  0  0  0
   -0.0001    0.0001    0.0000 N   0  0  0  0  0  0  0  0  0  0  0  0
    0.7999   -1.3856    0.0000 C   0  0  0  0  0  0  0  0  0  0  0  0
   -0.0001   -2.7713    0.0000 C   0  0  0  0  0  0  0  0  0  0  0  0
   -1.6000   -2.7713    0.0000 Cl  0  0  0  0  0  0  0  0  0  0  0  0
    0.7999   -4.1569    0.0000 C   0  0  0  0  0  0  0  0  0  0  0  0
   -0.0001   -5.5426    0.0000 H   0  0  0  0  0  0  0  0  0  0  0  0
    2.4001   -4.1569    0.0000 C   0  0  0  0  0  0  0  0  0  0  0  0
    3.2001   -5.5426    0.0000 H   0  0  0  0  0  0  0  0  0  0  0  0
    3.2001   -2.7713    0.0000 C   0  0  0  0  0  0  0  0  0  0  0  0
    4.8000   -2.7713    0.0000 H   0  0  0  0  0  0  0  0  0  0  0  0
    2.4001   -1.3856    0.0000 C   0  0  0  0  0  0  0  0  0  0  0  0
    3.2001    0.0001    0.0000 H   0  0  0  0  0  0  0  0  0  0  0  0
   -1.6000    0.0001    0.0000 C   0  0  0  0  0  0  0  0  0  0  0  0
   -3.1999    0.0001    0.0000 S   0  0  0  0  0  0  0  0  0  0  0  0
   -3.9999    1.3856    0.0000 P   0  0  0  0  0  0  0  0  0  0  0  0
   -2.6143    2.1856    0.0000 S   0  0  0  0  0  0  0  0  0  0  0  0
   -4.7999    2.7713    0.0000 O   0  0  0  0  0  0  0  0  0  0  0  0
   -6.4001    2.7713    0.0000 C   0  0  0  0  0  0  0  0  0  0  0  0
   -8.0000    2.7713    0.0000 H   0  0  0  0  0  0  0  0  0  0  0  0
   -7.2000    4.1569    0.0000 H   0  0  0  0  0  0  0  0  0  0  0  0
   -7.2000    1.3856    0.0000 H   0  0  0  0  0  0  0  0  0  0  0  0
   -5.3856    0.5857    0.0000 O   0  0  0  0  0  0  0  0  0  0  0  0
   -5.3856   -1.0144    0.0000 C   0  0  0  0  0  0  0  0  0  0  0  0
   -6.7712   -1.8144    0.0000 H   0  0  0  0  0  0  0  0  0  0  0  0
   -5.3856   -2.6143    0.0000 H   0  0  0  0  0  0  0  0  0  0  0  0
   -6.7712   -0.2143    0.0000 H   0  0  0  0  0  0  0  0  0  0  0  0
   -1.6000   -1.6000    0.0000 H   0  0  0  0  0  0  0  0  0  0  0  0
   -1.6000    1.6000    0.0000 H   0  0  0  0  0  0  0  0  0  0  0  0
    2.8014    1.3063    0.0000 H   0  0  0  0  0  0  0  0  0  0  0  0
    0.7444    3.7576    0.0000 H   0  0  0  0  0  0  0  0  0  0  0  0
    4.0270    2.3347    0.0000 H   0  0  0  0  0  0  0  0  0  0  0  0
    1.9700    4.7860    0.0000 H   0  0  0  0  0  0  0  0  0  0  0  0
    5.4500    5.6174    0.0000 H   0  0  0  0  0  0  0  0  0  0  0  0
    5.7278    4.0416    0.0000 H   0  0  0  0  0  0  0  0  0  0  0  0
    3.9464    6.1646    0.0000 H   0  0  0  0  0  0  0  0  0  0  0  0
  1  2  1  0  0  0  0
  2  3  1  0  0  0  0
  3  4  1  0  0  0  0
  4  5  2  0  0  0  0
  4  6  1  0  0  0  0
  6  7  1  0  0  0  0
  7  8  4  0  0  0  0
  8  9  1  0  0  0  0
  8 10  4  0  0  0  0
 10 11  1  0  0  0  0
 10 12  4  0  0  0  0
 12 13  1  0  0  0  0
 12 14  4  0  0  0  0
 14 15  1  0  0  0  0
 14 16  4  0  0  0  0
 16  7  4  0  0  0  0
 16 17  1  0  0  0  0
  6 18  1  0  0  0  0
 18 19  1  0  0  0  0
 19 20  1  0  0  0  0
 20 21  2  0  0  0  0
 20 22  1  0  0  0  0
 22 23  1  0  0  0  0
 23 24  1  0  0  0  0
 23 25  1  0  0  0  0
 23 26  1  0  0  0  0
 20 27  1  0  0  0  0
 27 28  1  0  0  0  0
 28 29  1  0  0  0  0
 28 30  1  0  0  0  0
 28 31  1  0  0  0  0
 18 32  1  0  0  0  0
 18 33  1  0  0  0  0
  3 34  1  0  0  0  0
  3 35  1  0  0  0  0
  2 36  1  0  0  0  0
  2 37  1  0  0  0  0
  1 38  1  0  0  0  0
  1 39  1  0  0  0  0
  1 40  1  0  0  0  0
M  END
> <CAS>
83733-82-8

> <NAME>
Phosmethylan

> <preferred_name>
Fosmethilan

> <iupac>
S-{[butyryl(2-chlorophenyl)amino]methyl} O,O-dimethyl phosphorodithioate

> <SMILES>
CCCC(=O)N(CSP(=S)(OC)OC)c1ccccc1Cl

> <Canonical_QSARr>
CCCC(=O)N(CSP(=S)(OC)OC)c1ccccc1Cl

> <InChI_Code_QSARr>
InChI=1S/C13H19ClNO3PS2/c1-4-7-13(16)15(10-21-19(20,17-2)18-3)12-9-6-5-8-11(12)14/h5-6,8-9H,4,7,10H2,1-3H3

> <InChI Key_QSARr>
MVBGKYGTNGPFHT-UHFFFAOYSA-N

> <Salt_Solvent>
?

> <WS Temperature>
20

> <WS Reference>
TOMLIN,C (2003)

> <dsstox_substance_id>
DTXSID0058196

> <LogMolar>
-5.204

$$$$
84408-37-7
  -INDIGO-01081615412D

 26 27  0  0  0  0  0  0  0  0999 V2000
    5.4214    1.1524    0.0000 C   0  0  0  0  0  0  0  0  0  0  0  0
    6.9431    0.6580    0.0000 O   0  0  0  0  0  0  0  0  0  0  0  0
    8.1322    1.7286    0.0000 H   0  0  0  0  0  0  0  0  0  0  0  0
    3.8997    1.6468    0.0000 C   0  0  0  0  0  0  0  0  0  0  0  0
    2.3780    2.1412    0.0000 O   0  0  0  0  0  0  0  0  0  0  0  0
    1.1889    1.0706    0.0000 C   0  0  0  0  0  0  0  0  0  0  0  0
   -0.0001   -0.0000    0.0000 N   0  0  0  1  0  0  0  0  0  0  0  0
    0.1672   -1.5912    0.0000 C   0  0  0  0  0  0  0  0  0  0  0  0
    1.5528   -2.3913    0.0000 H   0  0  0  0  0  0  0  0  0  0  0  0
   -1.2944   -2.2420    0.0000 N   0  0  0  1  0  0  0  0  0  0  0  0
   -2.3651   -1.0530    0.0000 C   0  0  0  0  0  0  0  0  0  0  0  0
   -3.9651   -1.0530    0.0000 C   0  0  0  0  0  0  0  0  0  0  0  0
   -4.7650    0.3327    0.0000 N   0  0  0  1  0  0  0  0  0  0  0  0
   -3.9651    1.7183    0.0000 C   0  0  0  0  0  0  0  0  0  0  0  0
   -4.7650    3.1039    0.0000 N   0  0  0  0  0  0  0  0  0  0  0  0
   -6.3650    3.1039    0.0000 H   0  0  0  0  0  0  0  0  0  0  0  0
   -3.9651    4.4896    0.0000 H   0  0  0  0  0  0  0  0  0  0  0  0
   -2.3651    1.7183    0.0000 N   0  0  0  1  0  0  0  0  0  0  0  0
   -1.5649    0.3327    0.0000 C   0  0  0  0  0  0  0  0  0  0  0  0
   -4.7650   -2.4386    0.0000 H   0  0  0  0  0  0  0  0  0  0  0  0
    2.2596   -0.1184    0.0000 H   0  0  0  0  0  0  0  0  0  0  0  0
    0.1185    2.2597    0.0000 H   0  0  0  0  0  0  0  0  0  0  0  0
    4.3941    3.1685    0.0000 H   0  0  0  0  0  0  0  0  0  0  0  0
    3.4053    0.1251    0.0000 H   0  0  0  0  0  0  0  0  0  0  0  0
    5.9158    2.6741    0.0000 H   0  0  0  0  0  0  0  0  0  0  0  0
    4.9270   -0.3693    0.0000 H   0  0  0  0  0  0  0  0  0  0  0  0
  1  2  1  0  0  0  0
  2  3  1  0  0  0  0
  1  4  1  0  0  0  0
  4  5  1  0  0  0  0
  5  6  1  0  0  0  0
  6  7  1  0  0  0  0
  7  8  4  0  0  0  0
  8  9  1  0  0  0  0
  8 10  4  0  0  0  0
 10 11  4  0  0  0  0
 11 12  4  0  0  0  0
 12 13  4  0  0  0  0
 13 14  4  0  0  0  0
 14 15  1  0  0  0  0
 15 16  1  0  0  0  0
 15 17  1  0  0  0  0
 14 18  4  0  0  0  0
 18 19  4  0  0  0  0
 19  7  4  0  0  0  0
 19 11  4  0  0  0  0
 12 20  1  0  0  0  0
  6 21  1  0  0  0  0
  6 22  1  0  0  0  0
  4 23  1  0  0  0  0
  4 24  1  0  0  0  0
  1 25  1  0  0  0  0
  1 26  1  0  0  0  0
M  END
> <CAS>
84408-37-7

> <NAME>
ETHANOL, 2-[(2-AMINO-9H-PURIN-9-YL)METHOXY]-

> <preferred_name>


> <iupac>


> <SMILES>
Nc1[n]c2c(c[n]1)[n]c[n]2COCCO

> <Canonical_QSARr>
Nc1[n]c2c(c[n]1)[n]c[n]2COCCO

> <InChI_Code_QSARr>
InChI=1S/C8H11N5O2/c9-8-10-3-6-7(12-8)13(4-11-6)5-15-2-1-14/h3-4,14H,1-2,5H2,(H2,9,10,12)

> <InChI Key_QSARr>
OKQHSIGMOWQUIK-UHFFFAOYSA-N

> <Salt_Solvent>
?

> <WS Temperature>
25

> <WS Reference>
KRISTL,A ET AL. (1993)

> <dsstox_substance_id>


> <LogMolar>
-1.0775

$$$$
84659-98-3
  -INDIGO-01081615412D

 24 25  0  0  0  0  0  0  0  0999 V2000
   -2.7712    4.8000    0.0000 O   0  0  0  0  0  0  0  0  0  0  0  0
   -2.7712    3.2001    0.0000 C   0  0  0  0  0  0  0  0  0  0  0  0
   -4.1569    2.4000    0.0000 C   0  0  0  0  0  0  0  0  0  0  0  0
   -5.5426    3.2001    0.0000 H   0  0  0  0  0  0  0  0  0  0  0  0
   -4.1569    0.8000    0.0000 C   0  0  0  0  0  0  0  0  0  0  0  0
   -5.5426    0.0000    0.0000 C   0  0  0  0  0  0  0  0  0  0  0  0
   -5.5426   -1.6000    0.0000 O   0  0  0  0  0  0  0  0  0  0  0  0
   -6.9281    0.8000    0.0000 O   0  0  0  0  0  0  0  0  0  0  0  0
   -8.3138    0.0000    0.0000 H   0  0  0  0  0  0  0  0  0  0  0  0
   -2.7712    0.0000    0.0000 N   0  0  0  0  0  0  0  0  0  0  0  0
   -2.7712   -1.6000    0.0000 H   0  0  0  0  0  0  0  0  0  0  0  0
   -1.3857    0.8000    0.0000 C   0  0  0  0  0  0  0  0  0  0  0  0
    0.0000    0.0000    0.0000 C   0  0  0  0  0  0  0  0  0  0  0  0
    0.0000   -1.6000    0.0000 C   0  0  0  0  0  0  0  0  0  0  0  0
   -1.3857   -2.4001    0.0000 H   0  0  0  0  0  0  0  0  0  0  0  0
    1.3857   -2.4001    0.0000 C   0  0  0  0  0  0  0  0  0  0  0  0
    1.3857   -4.0000    0.0000 H   0  0  0  0  0  0  0  0  0  0  0  0
    2.7712   -1.6000    0.0000 C   0  0  0  0  0  0  0  0  0  0  0  0
    4.1569   -2.4001    0.0000 H   0  0  0  0  0  0  0  0  0  0  0  0
    2.7712    0.0000    0.0000 C   0  0  0  0  0  0  0  0  0  0  0  0
    4.1569    0.8000    0.0000 H   0  0  0  0  0  0  0  0  0  0  0  0
    1.3857    0.8000    0.0000 C   0  0  0  0  0  0  0  0  0  0  0  0
    1.3857    2.4000    0.0000 H   0  0  0  0  0  0  0  0  0  0  0  0
   -1.3857    2.4000    0.0000 N   0  0  0  0  0  0  0  0  0  0  0  0
  1  2  2  0  0  0  0
  2  3  1  0  0  0  0
  3  4  1  0  0  0  0
  3  5  2  0  0  0  0
  5  6  1  0  0  0  0
  6  7  2  0  0  0  0
  6  8  1  0  0  0  0
  8  9  1  0  0  0  0
  5 10  1  0  0  0  0
 10 11  1  0  0  0  0
 10 12  1  0  0  0  0
 12 13  1  0  0  0  0
 13 14  4  0  0  0  0
 14 15  1  0  0  0  0
 14 16  4  0  0  0  0
 16 17  1  0  0  0  0
 16 18  4  0  0  0  0
 18 19  1  0  0  0  0
 18 20  4  0  0  0  0
 20 21  1  0  0  0  0
 20 22  4  0  0  0  0
 22 13  4  0  0  0  0
 22 23  1  0  0  0  0
 12 24  2  0  0  0  0
 24  2  1  0  0  0  0
M  END
> <CAS>
84659-98-3

> <NAME>
4-Pyrimidinecarboxylic acid, 1,6-dihydro-6-oxo-2

> <preferred_name>
6-hydroxy-2-phenylpyrimidine-4-carboxylic acid

> <iupac>
C11H8N2O3

> <SMILES>
OC(=O)C1=CC(=O)N=C(N1)c1ccccc1

> <Canonical_QSARr>
OC(=O)C1=CC(=O)N=C(N1)c1ccccc1

> <InChI_Code_QSARr>
InChI=1S/C11H8N2O3/c14-9-6-8(11(15)16)12-10(13-9)7-4-2-1-3-5-7/h1-6H,(H,15,16)(H,12,13,14)

> <InChI Key_QSARr>
SNFPSSBYDIFPOX-UHFFFAOYSA-N

> <Salt_Solvent>
?

> <WS Temperature>


> <WS Reference>
BEILSTEIN

> <dsstox_substance_id>
DTXSID40424569

> <LogMolar>
-2.211

$$$$
86598-92-7
  -INDIGO-01081615412D

 38 40  0  0  0  0  0  0  0  0999 V2000
    6.7683   -1.0285    0.0000 C   0  0  0  0  0  0  0  0  0  0  0  0
    5.3826   -1.8284    0.0000 C   0  0  0  0  0  0  0  0  0  0  0  0
    3.9971   -1.0285    0.0000 C   0  0  0  0  0  0  0  0  0  0  0  0
    2.6113   -0.2284    0.0000 S   0  0  0  0  0  0  0  0  0  0  0  0
    1.2256   -1.0285    0.0000 C   0  0  0  0  0  0  0  0  0  0  0  0
    1.2256   -2.6285    0.0000 N   0  0  0  0  0  0  0  0  0  0  0  0
    0.1971   -3.8542    0.0000 C   0  0  0  0  0  0  0  0  0  0  0  0
   -1.3785   -3.5764    0.0000 C   0  0  0  0  0  0  0  0  0  0  0  0
   -1.9256   -2.0729    0.0000 Cl  0  0  0  0  0  0  0  0  0  0  0  0
   -2.4070   -4.8020    0.0000 C   0  0  0  0  0  0  0  0  0  0  0  0
   -3.9826   -4.5241    0.0000 H   0  0  0  0  0  0  0  0  0  0  0  0
   -1.8596   -6.3055    0.0000 C   0  0  0  0  0  0  0  0  0  0  0  0
   -2.8881   -7.5312    0.0000 Cl  0  0  0  0  0  0  0  0  0  0  0  0
   -0.2840   -6.5833    0.0000 C   0  0  0  0  0  0  0  0  0  0  0  0
    0.2631   -8.0868    0.0000 H   0  0  0  0  0  0  0  0  0  0  0  0
    0.7445   -5.3576    0.0000 C   0  0  0  0  0  0  0  0  0  0  0  0
    2.3201   -5.6355    0.0000 H   0  0  0  0  0  0  0  0  0  0  0  0
    0.0000   -0.0000    0.0000 C   0  0  0  0  0  0  0  0  0  0  0  0
   -1.2258    1.0285    0.0000 N   0  0  0  1  0  0  0  0  0  0  0  0
   -2.7782    0.6413    0.0000 N   0  0  0  1  0  0  0  0  0  0  0  0
   -3.6260    1.9982    0.0000 C   0  0  0  0  0  0  0  0  0  0  0  0
   -5.2221    2.1099    0.0000 H   0  0  0  0  0  0  0  0  0  0  0  0
   -2.5975    3.2239    0.0000 N   0  0  0  1  0  0  0  0  0  0  0  0
   -1.1140    2.6246    0.0000 C   0  0  0  0  0  0  0  0  0  0  0  0
    0.2429    3.4724    0.0000 H   0  0  0  0  0  0  0  0  0  0  0  0
    1.0285    1.2257    0.0000 H   0  0  0  0  0  0  0  0  0  0  0  0
   -1.0284   -1.2257    0.0000 H   0  0  0  0  0  0  0  0  0  0  0  0
    3.1970   -2.4142    0.0000 H   0  0  0  0  0  0  0  0  0  0  0  0
    4.7969    0.3572    0.0000 H   0  0  0  0  0  0  0  0  0  0  0  0
    5.3826   -3.4284    0.0000 C   0  0  0  0  0  0  0  0  0  0  0  0
    3.9971   -4.2284    0.0000 H   0  0  0  0  0  0  0  0  0  0  0  0
    6.7683   -4.2284    0.0000 C   0  0  0  0  0  0  0  0  0  0  0  0
    6.7683   -5.8284    0.0000 H   0  0  0  0  0  0  0  0  0  0  0  0
    8.1538   -3.4284    0.0000 C   0  0  0  0  0  0  0  0  0  0  0  0
    9.5395   -4.2284    0.0000 Cl  0  0  0  0  0  0  0  0  0  0  0  0
    8.1538   -1.8284    0.0000 C   0  0  0  0  0  0  0  0  0  0  0  0
    9.5395   -1.0285    0.0000 H   0  0  0  0  0  0  0  0  0  0  0  0
    6.7683    0.5715    0.0000 H   0  0  0  0  0  0  0  0  0  0  0  0
  1  2  4  0  0  0  0
  2  3  1  0  0  0  0
  3  4  1  0  0  0  0
  4  5  1  0  0  0  0
  5  6  2  0  0  0  0
  6  7  1  0  0  0  0
  7  8  4  0  0  0  0
  8  9  1  0  0  0  0
  8 10  4  0  0  0  0
 10 11  1  0  0  0  0
 10 12  4  0  0  0  0
 12 13  1  0  0  0  0
 12 14  4  0  0  0  0
 14 15  1  0  0  0  0
 14 16  4  0  0  0  0
 16  7  4  0  0  0  0
 16 17  1  0  0  0  0
  5 18  1  0  0  0  0
 18 19  1  0  0  0  0
 19 20  4  0  0  0  0
 20 21  4  0  0  0  0
 21 22  1  0  0  0  0
 21 23  4  0  0  0  0
 23 24  4  0  0  0  0
 24 19  4  0  0  0  0
 24 25  1  0  0  0  0
 18 26  1  0  0  0  0
 18 27  1  0  0  0  0
  3 28  1  0  0  0  0
  3 29  1  0  0  0  0
  2 30  4  0  0  0  0
 30 31  1  0  0  0  0
 30 32  4  0  0  0  0
 32 33  1  0  0  0  0
 32 34  4  0  0  0  0
 34 35  1  0  0  0  0
 34 36  4  0  0  0  0
 36  1  4  0  0  0  0
 36 37  1  0  0  0  0
  1 38  1  0  0  0  0
M  END
> <CAS>
86598-92-7

> <NAME>
Imibenconazole

> <preferred_name>
Imibenconazole

> <iupac>
4-chlorobenzyl N-(2,4-dichlorophenyl)-2-(1H-1,2,4-triazol-1-yl)ethanimidothioate

> <SMILES>
Clc1cc(Cl)c(cc1)N=C(C[n]1c[n]c[n]1)SCc1ccc(Cl)cc1

> <Canonical_QSARr>
Clc1cc(Cl)c(cc1)N=C(C[n]1c[n]c[n]1)SCc1ccc(Cl)cc1

> <InChI_Code_QSARr>
InChI=1S/C17H13Cl3N4S/c18-13-3-1-12(2-4-13)9-25-17(8-24-11-21-10-22-24)23-16-6-5-14(19)7-15(16)20/h1-7,10-11H,8-9H2/b23-17+

> <InChI Key_QSARr>
AGKSTYPVMZODRV-HAVVHWLPSA-N

> <Salt_Solvent>
?

> <WS Temperature>
20

> <WS Reference>
TOMLIN,C (1994)

> <dsstox_substance_id>
DTXSID7058204

> <LogMolar>
-5.3842

$$$$
87237-48-7
  -INDIGO-01081615412D

 48 49  0  0  0  0  0  0  0  0999 V2000
    1.3856    0.7999    0.0000 C   0  0  0  0  0  0  0  0  0  0  0  0
    2.7713   -0.0001    0.0000 O   0  0  0  0  0  0  0  0  0  0  0  0
    1.3856    2.4000    0.0000 O   0  0  0  0  0  0  0  0  0  0  0  0
    2.7713    3.2000    0.0000 C   0  0  0  0  0  0  0  0  0  0  0  0
    4.1570    4.0000    0.0000 C   0  0  0  0  0  0  0  0  0  0  0  0
    5.5425    4.8001    0.0000 O   0  0  0  0  0  0  0  0  0  0  0  0
    5.5425    6.3999    0.0000 C   0  0  0  0  0  0  0  0  0  0  0  0
    5.5425    8.0000    0.0000 C   0  0  0  0  0  0  0  0  0  0  0  0
    5.5425    9.6000    0.0000 H   0  0  0  0  0  0  0  0  0  0  0  0
    6.9282    8.8000    0.0000 H   0  0  0  0  0  0  0  0  0  0  0  0
    4.1570    8.8000    0.0000 H   0  0  0  0  0  0  0  0  0  0  0  0
    7.1426    6.3999    0.0000 H   0  0  0  0  0  0  0  0  0  0  0  0
    3.9426    6.3999    0.0000 H   0  0  0  0  0  0  0  0  0  0  0  0
    3.3570    5.3856    0.0000 H   0  0  0  0  0  0  0  0  0  0  0  0
    4.9568    2.6144    0.0000 H   0  0  0  0  0  0  0  0  0  0  0  0
    1.9713    4.5856    0.0000 H   0  0  0  0  0  0  0  0  0  0  0  0
    3.5714    1.8144    0.0000 H   0  0  0  0  0  0  0  0  0  0  0  0
   -0.0001   -0.0001    0.0000 C   0  0  0  0  0  0  0  0  0  0  0  0
   -0.8001    1.3857    0.0000 O   0  0  0  0  0  0  0  0  0  0  0  0
   -2.4000    1.3857    0.0000 C   0  0  0  0  0  0  0  0  0  0  0  0
   -3.2000    2.7713    0.0000 C   0  0  0  0  0  0  0  0  0  0  0  0
   -2.4000    4.1569    0.0000 H   0  0  0  0  0  0  0  0  0  0  0  0
   -4.8001    2.7713    0.0000 C   0  0  0  0  0  0  0  0  0  0  0  0
   -5.5999    4.1569    0.0000 H   0  0  0  0  0  0  0  0  0  0  0  0
   -5.5999    1.3857    0.0000 C   0  0  0  0  0  0  0  0  0  0  0  0
   -7.2000    1.3857    0.0000 O   0  0  0  0  0  0  0  0  0  0  0  0
   -8.0000    2.7713    0.0000 C   0  0  0  0  0  0  0  0  0  0  0  0
   -9.6001    2.7713    0.0000 C   0  0  0  0  0  0  0  0  0  0  0  0
  -10.3999    1.3857    0.0000 Cl  0  0  0  0  0  0  0  0  0  0  0  0
  -10.3999    4.1569    0.0000 C   0  0  0  0  0  0  0  0  0  0  0  0
  -12.0000    4.1569    0.0000 H   0  0  0  0  0  0  0  0  0  0  0  0
   -9.6001    5.5425    0.0000 C   0  0  0  0  0  0  0  0  0  0  0  0
  -10.3999    6.9283    0.0000 C   0  0  0  0  0  0  0  0  0  0  0  0
  -11.2000    8.3139    0.0000 F   0  0  0  0  0  0  0  0  0  0  0  0
   -9.6001    8.3139    0.0000 F   0  0  0  0  0  0  0  0  0  0  0  0
  -12.0000    6.9283    0.0000 F   0  0  0  0  0  0  0  0  0  0  0  0
   -8.0000    5.5425    0.0000 C   0  0  0  0  0  0  0  0  0  0  0  0
   -7.2000    6.9283    0.0000 H   0  0  0  0  0  0  0  0  0  0  0  0
   -7.2000    4.1569    0.0000 N   0  0  0  1  0  0  0  0  0  0  0  0
   -4.8001   -0.0001    0.0000 C   0  0  0  0  0  0  0  0  0  0  0  0
   -5.5999   -1.3857    0.0000 H   0  0  0  0  0  0  0  0  0  0  0  0
   -3.2000   -0.0001    0.0000 C   0  0  0  0  0  0  0  0  0  0  0  0
   -2.4000   -1.3857    0.0000 H   0  0  0  0  0  0  0  0  0  0  0  0
    0.8000   -1.3857    0.0000 C   0  0  0  0  0  0  0  0  0  0  0  0
    1.6000   -2.7713    0.0000 H   0  0  0  0  0  0  0  0  0  0  0  0
    2.4001   -1.3857    0.0000 H   0  0  0  0  0  0  0  0  0  0  0  0
   -0.0001   -2.7713    0.0000 H   0  0  0  0  0  0  0  0  0  0  0  0
   -1.3855   -0.7999    0.0000 H   0  0  0  0  0  0  0  0  0  0  0  0
  1  2  2  0  0  0  0
  1  3  1  0  0  0  0
  3  4  1  0  0  0  0
  4  5  1  0  0  0  0
  5  6  1  0  0  0  0
  6  7  1  0  0  0  0
  7  8  1  0  0  0  0
  8  9  1  0  0  0  0
  8 10  1  0  0  0  0
  8 11  1  0  0  0  0
  7 12  1  0  0  0  0
  7 13  1  0  0  0  0
  5 14  1  0  0  0  0
  5 15  1  0  0  0  0
  4 16  1  0  0  0  0
  4 17  1  0  0  0  0
  1 18  1  0  0  0  0
 18 19  1  0  0  0  0
 19 20  1  0  0  0  0
 20 21  4  0  0  0  0
 21 22  1  0  0  0  0
 21 23  4  0  0  0  0
 23 24  1  0  0  0  0
 23 25  4  0  0  0  0
 25 26  1  0  0  0  0
 26 27  1  0  0  0  0
 27 28  4  0  0  0  0
 28 29  1  0  0  0  0
 28 30  4  0  0  0  0
 30 31  1  0  0  0  0
 30 32  4  0  0  0  0
 32 33  1  0  0  0  0
 33 34  1  0  0  0  0
 33 35  1  0  0  0  0
 33 36  1  0  0  0  0
 32 37  4  0  0  0  0
 37 38  1  0  0  0  0
 37 39  4  0  0  0  0
 39 27  4  0  0  0  0
 25 40  4  0  0  0  0
 40 41  1  0  0  0  0
 40 42  4  0  0  0  0
 42 20  4  0  0  0  0
 42 43  1  0  0  0  0
 18 44  1  0  0  0  0
 44 45  1  0  0  0  0
 44 46  1  0  0  0  0
 44 47  1  0  0  0  0
 18 48  1  0  0  0  0
M  END
> <CAS>
87237-48-7

> <NAME>
HALOXYFOP-ETOTYL

> <preferred_name>
Haloxyfop-etotyl

> <iupac>
2-ethoxyethyl 2-[4-[3-chloro-5-(trifluoromethyl)pyridin-2-yl]oxyphenoxy]propanoate

> <SMILES>
CCOCCOC(=O)C(C)Oc1ccc(cc1)Oc1[n]cc(cc1Cl)C(F)(F)F

> <Canonical_QSARr>
CCOCCOC(=O)C(C)Oc1ccc(cc1)Oc1[n]cc(cc1Cl)C(F)(F)F

> <InChI_Code_QSARr>
InChI=1S/C19H19ClF3NO5/c1-3-26-8-9-27-18(25)12(2)28-14-4-6-15(7-5-14)29-17-16(20)10-13(11-24-17)19(21,22)23/h4-7,10-12H,3,8-9H2,1-2H3

> <InChI Key_QSARr>
MIJLZGZLQLAQCM-UHFFFAOYSA-N

> <Salt_Solvent>
?

> <WS Temperature>
20

> <WS Reference>
TOMLIN,C (1997)

> <dsstox_substance_id>
DTXSID9058492

> <LogMolar>
-5.8739

$$$$
87757-18-4
  -INDIGO-01081615412D

 41 43  0  0  0  0  0  0  0  0999 V2000
    0.1671   -1.5912    0.0000 C   0  0  0  0  0  0  0  0  0  0  0  0
   -1.1273   -2.5316    0.0000 O   0  0  0  0  0  0  0  0  0  0  0  0
    0.0000   -0.0000    0.0000 C   0  0  0  0  0  0  0  0  0  0  0  0
   -0.1671    1.5912    0.0000 C   0  0  0  0  0  0  0  0  0  0  0  0
   -0.3345    3.1825    0.0000 H   0  0  0  0  0  0  0  0  0  0  0  0
   -1.6289    2.2420    0.0000 H   0  0  0  0  0  0  0  0  0  0  0  0
    1.1273    2.5317    0.0000 H   0  0  0  0  0  0  0  0  0  0  0  0
   -1.5911   -0.1672    0.0000 O   0  0  0  0  0  0  0  0  0  0  0  0
   -3.0530    0.4836    0.0000 C   0  0  0  0  0  0  0  0  0  0  0  0
   -3.4938    2.0215    0.0000 C   0  0  0  0  0  0  0  0  0  0  0  0
   -2.3825    3.1725    0.0000 H   0  0  0  0  0  0  0  0  0  0  0  0
   -5.0463    2.4086    0.0000 C   0  0  0  0  0  0  0  0  0  0  0  0
   -5.4875    3.9466    0.0000 H   0  0  0  0  0  0  0  0  0  0  0  0
   -6.1580    1.2577    0.0000 C   0  0  0  0  0  0  0  0  0  0  0  0
   -7.7105    1.6447    0.0000 O   0  0  0  0  0  0  0  0  0  0  0  0
   -8.8218    0.4939    0.0000 C   0  0  0  0  0  0  0  0  0  0  0  0
  -10.3743    0.8809    0.0000 C   0  0  0  0  0  0  0  0  0  0  0  0
  -10.8152    2.4188    0.0000 Cl  0  0  0  0  0  0  0  0  0  0  0  0
  -11.4857   -0.2701    0.0000 C   0  0  0  0  0  0  0  0  0  0  0  0
  -13.0382    0.1169    0.0000 H   0  0  0  0  0  0  0  0  0  0  0  0
  -11.0446   -1.8081    0.0000 C   0  0  0  0  0  0  0  0  0  0  0  0
  -12.1562   -2.9591    0.0000 Cl  0  0  0  0  0  0  0  0  0  0  0  0
   -9.4923   -2.1951    0.0000 C   0  0  0  0  0  0  0  0  0  0  0  0
   -9.0512   -3.7332    0.0000 H   0  0  0  0  0  0  0  0  0  0  0  0
   -8.3807   -1.0442    0.0000 N   0  0  0  1  0  0  0  0  0  0  0  0
   -5.7168   -0.2804    0.0000 C   0  0  0  0  0  0  0  0  0  0  0  0
   -6.8282   -1.4313    0.0000 H   0  0  0  0  0  0  0  0  0  0  0  0
   -4.1643   -0.6674    0.0000 C   0  0  0  0  0  0  0  0  0  0  0  0
   -3.7235   -2.2054    0.0000 H   0  0  0  0  0  0  0  0  0  0  0  0
    1.5912    0.1673    0.0000 H   0  0  0  0  0  0  0  0  0  0  0  0
    1.6290   -2.2420    0.0000 N   0  0  0  0  0  0  0  0  0  0  0  0
    1.9615   -3.8070    0.0000 C   0  0  0  0  0  0  0  0  0  0  0  0
    0.3704   -3.9743    0.0000 H   0  0  0  0  0  0  0  0  0  0  0  0
    1.9615   -5.4070    0.0000 H   0  0  0  0  0  0  0  0  0  0  0  0
    3.5527   -3.9743    0.0000 C   0  0  0  0  0  0  0  0  0  0  0  0
    3.2201   -5.5393    0.0000 H   0  0  0  0  0  0  0  0  0  0  0  0
    5.0745   -4.4688    0.0000 H   0  0  0  0  0  0  0  0  0  0  0  0
    4.2036   -2.5127    0.0000 C   0  0  0  0  0  0  0  0  0  0  0  0
    5.5892   -3.3127    0.0000 H   0  0  0  0  0  0  0  0  0  0  0  0
    5.1441   -1.2182    0.0000 H   0  0  0  0  0  0  0  0  0  0  0  0
    3.0146   -1.4420    0.0000 O   0  0  0  0  0  0  0  0  0  0  0  0
  1  2  2  0  0  0  0
  1  3  1  0  0  0  0
  3  4  1  0  0  0  0
  4  5  1  0  0  0  0
  4  6  1  0  0  0  0
  4  7  1  0  0  0  0
  3  8  1  0  0  0  0
  8  9  1  0  0  0  0
  9 10  4  0  0  0  0
 10 11  1  0  0  0  0
 10 12  4  0  0  0  0
 12 13  1  0  0  0  0
 12 14  4  0  0  0  0
 14 15  1  0  0  0  0
 15 16  1  0  0  0  0
 16 17  4  0  0  0  0
 17 18  1  0  0  0  0
 17 19  4  0  0  0  0
 19 20  1  0  0  0  0
 19 21  4  0  0  0  0
 21 22  1  0  0  0  0
 21 23  4  0  0  0  0
 23 24  1  0  0  0  0
 23 25  4  0  0  0  0
 25 16  4  0  0  0  0
 14 26  4  0  0  0  0
 26 27  1  0  0  0  0
 26 28  4  0  0  0  0
 28  9  4  0  0  0  0
 28 29  1  0  0  0  0
  3 30  1  0  0  0  0
  1 31  1  0  0  0  0
 31 32  1  0  0  0  0
 32 33  1  0  0  0  0
 32 34  1  0  0  0  0
 32 35  1  0  0  0  0
 35 36  1  0  0  0  0
 35 37  1  0  0  0  0
 35 38  1  0  0  0  0
 38 39  1  0  0  0  0
 38 40  1  0  0  0  0
 38 41  1  0  0  0  0
 41 31  1  0  0  0  0
M  END
> <CAS>
87757-18-4

> <NAME>
ISOXAPYRIFOP

> <preferred_name>


> <iupac>


> <SMILES>
CC(Oc1ccc(cc1)Oc1[n]cc(Cl)cc1Cl)C(=O)N1CCCO1

> <Canonical_QSARr>
CC(Oc1ccc(cc1)Oc1[n]cc(Cl)cc1Cl)C(=O)N1CCCO1

> <InChI_Code_QSARr>
InChI=1S/C17H16Cl2N2O4/c1-11(17(22)21-7-2-8-23-21)24-13-3-5-14(6-4-13)25-16-15(19)9-12(18)10-20-16/h3-6,9-11H,2,7-8H2,1H3

> <InChI Key_QSARr>
ANFHKXSOSRDDRQ-UHFFFAOYSA-N

> <Salt_Solvent>
?

> <WS Temperature>
25

> <WS Reference>
TOMLIN,C (1994)

> <dsstox_substance_id>


> <LogMolar>
-4.5922

$$$$
88678-67-5
  -INDIGO-01081615412D

 45 46  0  0  0  0  0  0  0  0999 V2000
   -0.8001    1.3856    0.0000 C   0  0  0  0  0  0  0  0  0  0  0  0
    0.0001   -0.0000    0.0000 C   0  0  0  0  0  0  0  0  0  0  0  0
   -1.3856   -0.7999    0.0000 C   0  0  0  0  0  0  0  0  0  0  0  0
   -2.7713   -0.0000    0.0000 C   0  0  0  0  0  0  0  0  0  0  0  0
   -2.7713    1.6000    0.0000 H   0  0  0  0  0  0  0  0  0  0  0  0
   -4.1570   -0.7999    0.0000 C   0  0  0  0  0  0  0  0  0  0  0  0
   -5.5427   -0.0000    0.0000 O   0  0  0  0  0  0  0  0  0  0  0  0
   -6.9281   -0.7999    0.0000 C   0  0  0  0  0  0  0  0  0  0  0  0
   -6.9281   -2.3999    0.0000 S   0  0  0  0  0  0  0  0  0  0  0  0
   -8.3138   -0.0000    0.0000 N   0  0  0  0  0  0  0  0  0  0  0  0
   -9.6995   -0.7999    0.0000 C   0  0  0  0  0  0  0  0  0  0  0  0
  -11.0852   -0.0000    0.0000 N   0  0  0  1  0  0  0  0  0  0  0  0
  -12.4709   -0.8001    0.0000 C   0  0  0  0  0  0  0  0  0  0  0  0
  -13.8563   -0.0000    0.0000 O   0  0  0  0  0  0  0  0  0  0  0  0
  -15.2420   -0.8001    0.0000 C   0  0  0  0  0  0  0  0  0  0  0  0
  -16.6277   -0.0000    0.0000 H   0  0  0  0  0  0  0  0  0  0  0  0
  -16.6277   -1.6000    0.0000 H   0  0  0  0  0  0  0  0  0  0  0  0
  -15.2420    0.7999    0.0000 H   0  0  0  0  0  0  0  0  0  0  0  0
  -12.4709   -2.4001    0.0000 C   0  0  0  0  0  0  0  0  0  0  0  0
  -13.8563   -3.2000    0.0000 H   0  0  0  0  0  0  0  0  0  0  0  0
  -11.0852   -3.2000    0.0000 C   0  0  0  0  0  0  0  0  0  0  0  0
  -11.0852   -4.8000    0.0000 H   0  0  0  0  0  0  0  0  0  0  0  0
   -9.6995   -2.3999    0.0000 C   0  0  0  0  0  0  0  0  0  0  0  0
   -8.3138   -3.2000    0.0000 H   0  0  0  0  0  0  0  0  0  0  0  0
   -8.3138    1.6000    0.0000 C   0  0  0  0  0  0  0  0  0  0  0  0
   -8.3138    3.2000    0.0000 H   0  0  0  0  0  0  0  0  0  0  0  0
   -9.6995    2.4001    0.0000 H   0  0  0  0  0  0  0  0  0  0  0  0
   -6.9281    2.4001    0.0000 H   0  0  0  0  0  0  0  0  0  0  0  0
   -4.1570   -2.3999    0.0000 C   0  0  0  0  0  0  0  0  0  0  0  0
   -5.5427   -3.2000    0.0000 H   0  0  0  0  0  0  0  0  0  0  0  0
   -2.7713   -3.2000    0.0000 C   0  0  0  0  0  0  0  0  0  0  0  0
   -2.7713   -4.8000    0.0000 H   0  0  0  0  0  0  0  0  0  0  0  0
   -1.3856   -2.3999    0.0000 C   0  0  0  0  0  0  0  0  0  0  0  0
    0.0001   -3.2000    0.0000 H   0  0  0  0  0  0  0  0  0  0  0  0
    1.3855    0.8001    0.0000 C   0  0  0  0  0  0  0  0  0  0  0  0
    2.7712    1.6000    0.0000 H   0  0  0  0  0  0  0  0  0  0  0  0
    2.8891    0.2528    0.0000 H   0  0  0  0  0  0  0  0  0  0  0  0
    1.6634    2.3756    0.0000 H   0  0  0  0  0  0  0  0  0  0  0  0
    0.8000   -1.3856    0.0000 C   0  0  0  0  0  0  0  0  0  0  0  0
    1.3471   -2.8892    0.0000 H   0  0  0  0  0  0  0  0  0  0  0  0
    2.3757   -1.6635    0.0000 H   0  0  0  0  0  0  0  0  0  0  0  0
    2.0258   -0.3572    0.0000 H   0  0  0  0  0  0  0  0  0  0  0  0
   -1.8284    2.6114    0.0000 H   0  0  0  0  0  0  0  0  0  0  0  0
   -0.2527    2.8892    0.0000 H   0  0  0  0  0  0  0  0  0  0  0  0
    0.7756    1.6635    0.0000 H   0  0  0  0  0  0  0  0  0  0  0  0
  1  2  1  0  0  0  0
  2  3  1  0  0  0  0
  3  4  4  0  0  0  0
  4  5  1  0  0  0  0
  4  6  4  0  0  0  0
  6  7  1  0  0  0  0
  7  8  1  0  0  0  0
  8  9  2  0  0  0  0
  8 10  1  0  0  0  0
 10 11  1  0  0  0  0
 11 12  4  0  0  0  0
 12 13  4  0  0  0  0
 13 14  1  0  0  0  0
 14 15  1  0  0  0  0
 15 16  1  0  0  0  0
 15 17  1  0  0  0  0
 15 18  1  0  0  0  0
 13 19  4  0  0  0  0
 19 20  1  0  0  0  0
 19 21  4  0  0  0  0
 21 22  1  0  0  0  0
 21 23  4  0  0  0  0
 23 11  4  0  0  0  0
 23 24  1  0  0  0  0
 10 25  1  0  0  0  0
 25 26  1  0  0  0  0
 25 27  1  0  0  0  0
 25 28  1  0  0  0  0
  6 29  4  0  0  0  0
 29 30  1  0  0  0  0
 29 31  4  0  0  0  0
 31 32  1  0  0  0  0
 31 33  4  0  0  0  0
 33  3  4  0  0  0  0
 33 34  1  0  0  0  0
  2 35  1  0  0  0  0
 35 36  1  0  0  0  0
 35 37  1  0  0  0  0
 35 38  1  0  0  0  0
  2 39  1  0  0  0  0
 39 40  1  0  0  0  0
 39 41  1  0  0  0  0
 39 42  1  0  0  0  0
  1 43  1  0  0  0  0
  1 44  1  0  0  0  0
  1 45  1  0  0  0  0
M  END
> <CAS>
88678-67-5

> <NAME>
Pyributicarb

> <preferred_name>
Pyributicarb

> <iupac>
O-(3-tert-butylphenyl) (6-methoxypyridin-2-yl)methylcarbamothioate

> <SMILES>
COc1cccc([n]1)N(C)C(=S)Oc1cc(ccc1)C(C)(C)C

> <Canonical_QSARr>
COc1cccc([n]1)N(C)C(=S)Oc1cc(ccc1)C(C)(C)C

> <InChI_Code_QSARr>
InChI=1S/C18H22N2O2S/c1-18(2,3)13-8-6-9-14(12-13)22-17(23)20(4)15-10-7-11-16(19-15)21-5/h6-12H,1-5H3

> <InChI Key_QSARr>
VTRWMTJQBQJKQH-UHFFFAOYSA-N

> <Salt_Solvent>
?

> <WS Temperature>
20

> <WS Reference>
TOMLIN,C (1994)

> <dsstox_substance_id>
DTXSID2058209

> <LogMolar>
-6.014

$$$$
89269-64-7
  -INDIGO-01081615412D

 37 38  0  0  0  0  0  0  0  0999 V2000
   -1.3857    2.4000    0.0000 C   0  0  0  0  0  0  0  0  0  0  0  0
    0.0000    1.6000    0.0000 C   0  0  0  0  0  0  0  0  0  0  0  0
    0.0000   -0.0000    0.0000 C   0  0  0  0  0  0  0  0  0  0  0  0
   -1.3857   -0.8000    0.0000 C   0  0  0  0  0  0  0  0  0  0  0  0
   -2.7714   -0.0000    0.0000 N   0  0  0  0  0  0  0  0  0  0  0  0
   -4.1568   -0.8000    0.0000 N   0  0  0  0  0  0  0  0  0  0  0  0
   -5.5425   -0.0000    0.0000 C   0  0  0  0  0  0  0  0  0  0  0  0
   -5.5425    1.6000    0.0000 N   0  0  0  1  0  0  0  0  0  0  0  0
   -6.9282    2.4000    0.0000 C   0  0  0  0  0  0  0  0  0  0  0  0
   -6.9282    3.9999    0.0000 C   0  0  0  0  0  0  0  0  0  0  0  0
   -6.9282    5.6000    0.0000 H   0  0  0  0  0  0  0  0  0  0  0  0
   -8.3139    4.8000    0.0000 H   0  0  0  0  0  0  0  0  0  0  0  0
   -5.5425    4.8000    0.0000 H   0  0  0  0  0  0  0  0  0  0  0  0
   -8.3139    1.6000    0.0000 C   0  0  0  0  0  0  0  0  0  0  0  0
   -9.6994    2.4000    0.0000 H   0  0  0  0  0  0  0  0  0  0  0  0
   -8.3139   -0.0000    0.0000 C   0  0  0  0  0  0  0  0  0  0  0  0
   -9.6994   -0.8000    0.0000 C   0  0  0  0  0  0  0  0  0  0  0  0
  -11.0851   -1.6000    0.0000 H   0  0  0  0  0  0  0  0  0  0  0  0
   -9.6994   -2.4001    0.0000 H   0  0  0  0  0  0  0  0  0  0  0  0
  -11.0851   -0.0000    0.0000 H   0  0  0  0  0  0  0  0  0  0  0  0
   -6.9282   -0.8000    0.0000 N   0  0  0  1  0  0  0  0  0  0  0  0
   -4.1568   -2.4001    0.0000 H   0  0  0  0  0  0  0  0  0  0  0  0
   -1.3857   -2.3999    0.0000 C   0  0  0  0  0  0  0  0  0  0  0  0
   -1.3857   -4.0000    0.0000 H   0  0  0  0  0  0  0  0  0  0  0  0
   -2.7714   -3.2000    0.0000 H   0  0  0  0  0  0  0  0  0  0  0  0
    0.0000   -3.2000    0.0000 H   0  0  0  0  0  0  0  0  0  0  0  0
    1.3857   -0.8000    0.0000 C   0  0  0  0  0  0  0  0  0  0  0  0
    1.3857   -2.3999    0.0000 H   0  0  0  0  0  0  0  0  0  0  0  0
    2.7712   -0.0000    0.0000 C   0  0  0  0  0  0  0  0  0  0  0  0
    4.1569   -0.8000    0.0000 H   0  0  0  0  0  0  0  0  0  0  0  0
    2.7712    1.6000    0.0000 C   0  0  0  0  0  0  0  0  0  0  0  0
    4.1569    2.4000    0.0000 H   0  0  0  0  0  0  0  0  0  0  0  0
    1.3857    2.4000    0.0000 C   0  0  0  0  0  0  0  0  0  0  0  0
    1.3857    4.0001    0.0000 H   0  0  0  0  0  0  0  0  0  0  0  0
   -2.7714    3.2000    0.0000 H   0  0  0  0  0  0  0  0  0  0  0  0
   -1.3857    4.0001    0.0000 H   0  0  0  0  0  0  0  0  0  0  0  0
   -2.7714    1.6000    0.0000 H   0  0  0  0  0  0  0  0  0  0  0  0
  1  2  1  0  0  0  0
  2  3  4  0  0  0  0
  3  4  1  0  0  0  0
  4  5  2  0  0  0  0
  5  6  1  0  0  0  0
  6  7  1  0  0  0  0
  7  8  4  0  0  0  0
  8  9  4  0  0  0  0
  9 10  1  0  0  0  0
 10 11  1  0  0  0  0
 10 12  1  0  0  0  0
 10 13  1  0  0  0  0
  9 14  4  0  0  0  0
 14 15  1  0  0  0  0
 14 16  4  0  0  0  0
 16 17  1  0  0  0  0
 17 18  1  0  0  0  0
 17 19  1  0  0  0  0
 17 20  1  0  0  0  0
 16 21  4  0  0  0  0
 21  7  4  0  0  0  0
  6 22  1  0  0  0  0
  4 23  1  0  0  0  0
 23 24  1  0  0  0  0
 23 25  1  0  0  0  0
 23 26  1  0  0  0  0
  3 27  4  0  0  0  0
 27 28  1  0  0  0  0
 27 29  4  0  0  0  0
 29 30  1  0  0  0  0
 29 31  4  0  0  0  0
 31 32  1  0  0  0  0
 31 33  4  0  0  0  0
 33  2  4  0  0  0  0
 33 34  1  0  0  0  0
  1 35  1  0  0  0  0
  1 36  1  0  0  0  0
  1 37  1  0  0  0  0
M  END
> <CAS>
89269-64-7

> <NAME>
Ferimzone

> <preferred_name>
Ferimzone

> <iupac>
4,6-dimethyl-2-{(2Z)-2-[1-(2-methylphenyl)ethylidene]hydrazino}pyrimidine

> <SMILES>
C/C(=N/Nc1[n]c(C)cc(C)[n]1)/c1ccccc1C

> <Canonical_QSARr>
CC(=NNc1[n]c(C)cc(C)[n]1)c1ccccc1C

> <InChI_Code_QSARr>
InChI=1S/C15H18N4/c1-10-7-5-6-8-14(10)13(4)18-19-15-16-11(2)9-12(3)17-15/h5-9H,1-4H3,(H,16,17,19)/b18-13+

> <InChI Key_QSARr>
GOWLARCWZRESHU-QGOAFFKASA-N

> <Salt_Solvent>
?

> <WS Temperature>
30

> <WS Reference>
TOMLIN,C (1994)

> <dsstox_substance_id>
DTXSID1058210

> <LogMolar>
-3.1959

$$$$
89851-12-7
  -INDIGO-01081615412D

 30 29  0  0  0  0  0  0  0  0999 V2000
    3.3255   -0.3200    0.0000 C   0  0  0  0  0  0  0  0  0  0  0  0
    4.7111   -1.1201    0.0000 N   0  0  0  0  0  0  0  0  0  0  0  0
    6.0969   -0.3200    0.0000 S   0  0  0  0  0  0  0  0  0  0  0  0
    7.4825    0.4800    0.0000 N   0  0  0  0  0  0  0  0  0  0  0  0
    8.8681   -0.3200    0.0000 H   0  0  0  0  0  0  0  0  0  0  0  0
    7.4825    2.0800    0.0000 H   0  0  0  0  0  0  0  0  0  0  0  0
    6.8969   -1.7056    0.0000 O   0  0  0  0  0  0  0  0  0  0  0  0
    5.2969    1.0656    0.0000 O   0  0  0  0  0  0  0  0  0  0  0  0
    4.7111   -2.7199    0.0000 H   0  0  0  0  0  0  0  0  0  0  0  0
    1.9399   -1.1201    0.0000 O   0  0  0  0  0  0  0  0  0  0  0  0
    0.5543   -0.3200    0.0000 C   0  0  0  0  0  0  0  0  0  0  0  0
    0.0000   -0.0000    0.0000 C   0  0  0  0  0  0  0  0  0  0  0  0
    0.0000    1.6000    0.0000 C   0  0  0  0  0  0  0  0  0  0  0  0
    0.0000    3.2000    0.0000 C   0  0  0  0  0  0  0  0  0  0  0  0
    0.0000    4.8000    0.0000 H   0  0  0  0  0  0  0  0  0  0  0  0
   -1.3856    4.0001    0.0000 H   0  0  0  0  0  0  0  0  0  0  0  0
    1.3856    4.0001    0.0000 H   0  0  0  0  0  0  0  0  0  0  0  0
   -1.5758    1.8778    0.0000 H   0  0  0  0  0  0  0  0  0  0  0  0
    1.5035    2.1473    0.0000 H   0  0  0  0  0  0  0  0  0  0  0  0
   -1.0285   -1.2257    0.0000 C   0  0  0  0  0  0  0  0  0  0  0  0
   -2.0568   -2.4513    0.0000 C   0  0  0  0  0  0  0  0  0  0  0  0
   -3.0854   -3.6770    0.0000 H   0  0  0  0  0  0  0  0  0  0  0  0
   -3.6326   -2.1736    0.0000 H   0  0  0  0  0  0  0  0  0  0  0  0
   -1.5098   -3.9549    0.0000 H   0  0  0  0  0  0  0  0  0  0  0  0
   -2.2541   -0.1972    0.0000 H   0  0  0  0  0  0  0  0  0  0  0  0
   -0.4813   -2.7292    0.0000 H   0  0  0  0  0  0  0  0  0  0  0  0
   -1.3856    0.8000    0.0000 H   0  0  0  0  0  0  0  0  0  0  0  0
    0.5543   -1.9200    0.0000 H   0  0  0  0  0  0  0  0  0  0  0  0
    1.3543    1.0656    0.0000 H   0  0  0  0  0  0  0  0  0  0  0  0
    3.3255    1.2800    0.0000 O   0  0  0  0  0  0  0  0  0  0  0  0
  1  2  1  0  0  0  0
  2  3  1  0  0  0  0
  3  4  1  0  0  0  0
  4  5  1  0  0  0  0
  4  6  1  0  0  0  0
  3  7  2  0  0  0  0
  3  8  2  0  0  0  0
  2  9  1  0  0  0  0
  1 10  1  0  0  0  0
 10 11  1  0  0  0  0
 11 12  1  0  0  0  0
 12 13  1  0  0  0  0
 13 14  1  0  0  0  0
 14 15  1  0  0  0  0
 14 16  1  0  0  0  0
 14 17  1  0  0  0  0
 13 18  1  0  0  0  0
 13 19  1  0  0  0  0
 12 20  1  0  0  0  0
 20 21  1  0  0  0  0
 21 22  1  0  0  0  0
 21 23  1  0  0  0  0
 21 24  1  0  0  0  0
 20 25  1  0  0  0  0
 20 26  1  0  0  0  0
 12 27  1  0  0  0  0
 11 28  1  0  0  0  0
 11 29  1  0  0  0  0
  1 30  2  0  0  0  0
M  END
> <CAS>
89851-12-7

> <NAME>
Carbamic acid, sulfamoyl-, 2-ethylbutyl ester

> <preferred_name>


> <iupac>


> <SMILES>
CCC(COC(=O)NS(N)(=O)=O)CC

> <Canonical_QSARr>
CCC(COC(=O)NS(N)(=O)=O)CC

> <InChI_Code_QSARr>
InChI=1S/C7H16N2O4S/c1-3-6(4-2)5-13-7(10)9-14(8,11)12/h6H,3-5H2,1-2H3,(H,9,10)(H2,8,11,12)

> <InChI Key_QSARr>
KWOASAPABPGJSS-UHFFFAOYSA-N

> <Salt_Solvent>
?

> <WS Temperature>
25

> <WS Reference>
BEILSTEIN

> <dsstox_substance_id>


> <LogMolar>
-1.7487

$$$$
89984-23-6
  -INDIGO-01081615412D

 21 21  0  0  0  0  0  0  0  0999 V2000
   -2.4000    1.3856    0.0000 O   0  0  0  0  0  0  0  0  0  0  0  0
   -4.0001    1.3856    0.0000 C   0  0  0  0  0  0  0  0  0  0  0  0
   -4.8000    2.7713    0.0000 H   0  0  0  0  0  0  0  0  0  0  0  0
   -5.6000    1.3856    0.0000 H   0  0  0  0  0  0  0  0  0  0  0  0
   -3.2000    2.7713    0.0000 H   0  0  0  0  0  0  0  0  0  0  0  0
   -1.6000    0.0000    0.0000 C   0  0  0  0  0  0  0  0  0  0  0  0
   -2.4000   -1.3856    0.0000 C   0  0  0  0  0  0  0  0  0  0  0  0
   -4.0001   -1.3856    0.0000 O   0  0  0  0  0  0  0  0  0  0  0  0
   -4.8000   -2.7713    0.0000 H   0  0  0  0  0  0  0  0  0  0  0  0
   -1.6000   -2.7713    0.0000 C   0  0  0  0  0  0  0  0  0  0  0  0
   -2.4000   -4.1569    0.0000 H   0  0  0  0  0  0  0  0  0  0  0  0
   -0.0000   -2.7713    0.0000 C   0  0  0  0  0  0  0  0  0  0  0  0
    0.8000   -4.1569    0.0000 H   0  0  0  0  0  0  0  0  0  0  0  0
    0.8000   -1.3856    0.0000 C   0  0  0  0  0  0  0  0  0  0  0  0
    2.4000   -1.3856    0.0000 C   0  0  0  0  0  0  0  0  0  0  0  0
    3.2000   -2.7713    0.0000 O   0  0  0  0  0  0  0  0  0  0  0  0
    3.2000    0.0000    0.0000 H   0  0  0  0  0  0  0  0  0  0  0  0
   -0.0000    0.0000    0.0000 C   0  0  0  0  0  0  0  0  0  0  0  0
    0.8000    1.3856    0.0000 N   0  0  0  0  0  0  0  0  0  0  0  0
    2.4000    1.3856    0.0000 H   0  0  0  0  0  0  0  0  0  0  0  0
   -0.0000    2.7713    0.0000 H   0  0  0  0  0  0  0  0  0  0  0  0
  1  2  1  0  0  0  0
  2  3  1  0  0  0  0
  2  4  1  0  0  0  0
  2  5  1  0  0  0  0
  1  6  1  0  0  0  0
  6  7  4  0  0  0  0
  7  8  1  0  0  0  0
  8  9  1  0  0  0  0
  7 10  4  0  0  0  0
 10 11  1  0  0  0  0
 10 12  4  0  0  0  0
 12 13  1  0  0  0  0
 12 14  4  0  0  0  0
 14 15  1  0  0  0  0
 15 16  2  0  0  0  0
 15 17  1  0  0  0  0
 14 18  4  0  0  0  0
 18  6  4  0  0  0  0
 18 19  1  0  0  0  0
 19 20  1  0  0  0  0
 19 21  1  0  0  0  0
M  END
> <CAS>
89984-23-6

> <NAME>
Benzaldehyde, 2-amino-4-hydroxy-3-methoxy-

> <preferred_name>
89984-23-6

> <iupac>
C8H9NO3

> <SMILES>
COc1c(N)c(C=O)ccc1O

> <Canonical_QSARr>
COc1c(N)c(C=O)ccc1O

> <InChI_Code_QSARr>
InChI=1S/C8H9NO3/c1-12-8-6(11)3-2-5(4-10)7(8)9/h2-4,11H,9H2,1H3

> <InChI Key_QSARr>
PNKIOGYYVJRTML-UHFFFAOYSA-N

> <Salt_Solvent>
?

> <WS Temperature>


> <WS Reference>
BEILSTEIN

> <dsstox_substance_id>
DTXSID90294315

> <LogMolar>
-0.2232

$$$$
90324-88-2
  -INDIGO-01081615412D

 24 23  0  0  0  0  0  0  0  0999 V2000
   -4.1569    0.8000    0.0000 C   0  0  0  0  0  0  0  0  0  0  0  0
   -5.5427    1.6000    0.0000 N   0  0  0  0  0  0  0  0  0  0  0  0
   -6.9282    0.8000    0.0000 S   0  0  0  0  0  0  0  0  0  0  0  0
   -8.3139   -0.0000    0.0000 N   0  0  0  0  0  0  0  0  0  0  0  0
   -9.6995    0.8000    0.0000 H   0  0  0  0  0  0  0  0  0  0  0  0
   -8.3139   -1.6000    0.0000 H   0  0  0  0  0  0  0  0  0  0  0  0
   -7.7283    2.1856    0.0000 O   0  0  0  0  0  0  0  0  0  0  0  0
   -6.1281   -0.5856    0.0000 O   0  0  0  0  0  0  0  0  0  0  0  0
   -5.5427    3.2000    0.0000 H   0  0  0  0  0  0  0  0  0  0  0  0
   -2.7714    1.6000    0.0000 O   0  0  0  0  0  0  0  0  0  0  0  0
   -1.3856    0.8000    0.0000 C   0  0  0  0  0  0  0  0  0  0  0  0
    0.0001    0.0000    0.0000 C   0  0  0  0  0  0  0  0  0  0  0  0
    1.3856   -0.8000    0.0000 C   0  0  0  0  0  0  0  0  0  0  0  0
    2.7714   -1.6000    0.0000 C   0  0  0  0  0  0  0  0  0  0  0  0
    4.1569   -2.4000    0.0000 H   0  0  0  0  0  0  0  0  0  0  0  0
    2.7714   -3.2000    0.0000 H   0  0  0  0  0  0  0  0  0  0  0  0
    4.1569   -0.8000    0.0000 H   0  0  0  0  0  0  0  0  0  0  0  0
    0.5856   -2.1856    0.0000 H   0  0  0  0  0  0  0  0  0  0  0  0
    2.1857    0.5856    0.0000 H   0  0  0  0  0  0  0  0  0  0  0  0
    0.8000    1.3856    0.0000 H   0  0  0  0  0  0  0  0  0  0  0  0
   -0.8000   -1.3856    0.0000 H   0  0  0  0  0  0  0  0  0  0  0  0
   -2.1857   -0.5856    0.0000 H   0  0  0  0  0  0  0  0  0  0  0  0
   -0.5856    2.1856    0.0000 H   0  0  0  0  0  0  0  0  0  0  0  0
   -4.1569   -0.8000    0.0000 O   0  0  0  0  0  0  0  0  0  0  0  0
  1  2  1  0  0  0  0
  2  3  1  0  0  0  0
  3  4  1  0  0  0  0
  4  5  1  0  0  0  0
  4  6  1  0  0  0  0
  3  7  2  0  0  0  0
  3  8  2  0  0  0  0
  2  9  1  0  0  0  0
  1 10  1  0  0  0  0
 10 11  1  0  0  0  0
 11 12  1  0  0  0  0
 12 13  1  0  0  0  0
 13 14  1  0  0  0  0
 14 15  1  0  0  0  0
 14 16  1  0  0  0  0
 14 17  1  0  0  0  0
 13 18  1  0  0  0  0
 13 19  1  0  0  0  0
 12 20  1  0  0  0  0
 12 21  1  0  0  0  0
 11 22  1  0  0  0  0
 11 23  1  0  0  0  0
  1 24  2  0  0  0  0
M  END
> <CAS>
90324-88-2

> <NAME>
Carbamic acid, sulfamoyl-, butyl ester

> <preferred_name>


> <iupac>


> <SMILES>
CCCCOC(=O)NS(N)(=O)=O

> <Canonical_QSARr>
CCCCOC(=O)NS(N)(=O)=O

> <InChI_Code_QSARr>
InChI=1S/C5H12N2O4S/c1-2-3-4-11-5(8)7-12(6,9)10/h2-4H2,1H3,(H,7,8)(H2,6,9,10)

> <InChI Key_QSARr>
GFBKOADVXIDVBA-UHFFFAOYSA-N

> <Salt_Solvent>
?

> <WS Temperature>
25

> <WS Reference>
BEILSTEIN

> <dsstox_substance_id>


> <LogMolar>
-1.0375

$$$$
90717-03-6
  -INDIGO-01081615412D

 23 24  0  0  0  0  0  0  0  0999 V2000
    0.0001    2.7713    0.0000 N   0  0  0  1  0  0  0  0  0  0  0  0
    1.6001    2.7713    0.0000 C   0  0  0  0  0  0  0  0  0  0  0  0
    2.4000    4.1569    0.0000 H   0  0  0  0  0  0  0  0  0  0  0  0
    2.4000    1.3856    0.0000 C   0  0  0  0  0  0  0  0  0  0  0  0
    4.0000    1.3856    0.0000 C   0  0  0  0  0  0  0  0  0  0  0  0
    5.6000    1.3856    0.0000 H   0  0  0  0  0  0  0  0  0  0  0  0
    4.8000    2.7713    0.0000 H   0  0  0  0  0  0  0  0  0  0  0  0
    4.8000    0.0000    0.0000 H   0  0  0  0  0  0  0  0  0  0  0  0
    1.6001    0.0000    0.0000 C   0  0  0  0  0  0  0  0  0  0  0  0
    2.4000   -1.3856    0.0000 H   0  0  0  0  0  0  0  0  0  0  0  0
    0.0001    0.0000    0.0000 C   0  0  0  0  0  0  0  0  0  0  0  0
   -0.8001   -1.3856    0.0000 C   0  0  0  0  0  0  0  0  0  0  0  0
   -2.4000   -1.3856    0.0000 C   0  0  0  0  0  0  0  0  0  0  0  0
   -3.2000    0.0000    0.0000 C   0  0  0  0  0  0  0  0  0  0  0  0
   -4.8000    0.0000    0.0000 Cl  0  0  0  0  0  0  0  0  0  0  0  0
   -2.4000    1.3856    0.0000 C   0  0  0  0  0  0  0  0  0  0  0  0
   -3.2000    2.7713    0.0000 C   0  0  0  0  0  0  0  0  0  0  0  0
   -4.8000    2.7713    0.0000 O   0  0  0  0  0  0  0  0  0  0  0  0
   -5.6000    4.1569    0.0000 H   0  0  0  0  0  0  0  0  0  0  0  0
   -2.4000    4.1569    0.0000 O   0  0  0  0  0  0  0  0  0  0  0  0
   -0.8001    1.3856    0.0000 C   0  0  0  0  0  0  0  0  0  0  0  0
   -3.2000   -2.7713    0.0000 H   0  0  0  0  0  0  0  0  0  0  0  0
    0.0001   -2.7713    0.0000 H   0  0  0  0  0  0  0  0  0  0  0  0
  1  2  4  0  0  0  0
  2  3  1  0  0  0  0
  2  4  4  0  0  0  0
  4  5  1  0  0  0  0
  5  6  1  0  0  0  0
  5  7  1  0  0  0  0
  5  8  1  0  0  0  0
  4  9  4  0  0  0  0
  9 10  1  0  0  0  0
  9 11  4  0  0  0  0
 11 12  4  0  0  0  0
 12 13  4  0  0  0  0
 13 14  4  0  0  0  0
 14 15  1  0  0  0  0
 14 16  4  0  0  0  0
 16 17  1  0  0  0  0
 17 18  1  0  0  0  0
 18 19  1  0  0  0  0
 17 20  2  0  0  0  0
 16 21  4  0  0  0  0
 21  1  4  0  0  0  0
 21 11  4  0  0  0  0
 13 22  1  0  0  0  0
 12 23  1  0  0  0  0
M  END
> <CAS>
90717-03-6

> <NAME>
Quinmerac

> <preferred_name>
Quinmerac

> <iupac>
7-chloro-3-methylquinoline-8-carboxylic acid

> <SMILES>
Cc1cc2ccc(Cl)c(C(O)=O)c2[n]c1

> <Canonical_QSARr>
Cc1cc2ccc(Cl)c(C(O)=O)c2[n]c1

> <InChI_Code_QSARr>
InChI=1S/C11H8ClNO2/c1-6-4-7-2-3-8(12)9(11(14)15)10(7)13-5-6/h2-5H,1H3,(H,14,15)

> <InChI Key_QSARr>
ALZOLUNSQWINIR-UHFFFAOYSA-N

> <Salt_Solvent>
?

> <WS Temperature>
20

> <WS Reference>
TOMLIN,C (1994)

> <dsstox_substance_id>
DTXSID1042364

> <LogMolar>
-2.9973

$$$$
91007-35-1
  -INDIGO-01081615412D

 31 31  0  0  0  0  0  0  0  0999 V2000
    1.3857   -0.8000    0.0000 O   0  0  0  0  0  0  0  0  0  0  0  0
    2.9614   -0.5221    0.0000 C   0  0  0  0  0  0  0  0  0  0  0  0
    2.9614    1.0778    0.0000 C   0  0  0  0  0  0  0  0  0  0  0  0
    1.7356    2.1063    0.0000 O   0  0  0  0  0  0  0  0  0  0  0  0
    4.3470    1.8779    0.0000 O   0  0  0  0  0  0  0  0  0  0  0  0
    4.3470    3.4778    0.0000 H   0  0  0  0  0  0  0  0  0  0  0  0
    4.5614   -0.5221    0.0000 C   0  0  0  0  0  0  0  0  0  0  0  0
    6.1613   -0.5221    0.0000 H   0  0  0  0  0  0  0  0  0  0  0  0
    5.3614   -1.9079    0.0000 H   0  0  0  0  0  0  0  0  0  0  0  0
    5.3614    0.8635    0.0000 H   0  0  0  0  0  0  0  0  0  0  0  0
    2.9614   -2.1222    0.0000 C   0  0  0  0  0  0  0  0  0  0  0  0
    2.9614   -3.7222    0.0000 H   0  0  0  0  0  0  0  0  0  0  0  0
    4.3470   -2.9221    0.0000 H   0  0  0  0  0  0  0  0  0  0  0  0
    1.5756   -2.9221    0.0000 H   0  0  0  0  0  0  0  0  0  0  0  0
    0.0001   -0.0000    0.0000 C   0  0  0  0  0  0  0  0  0  0  0  0
   -0.8001    1.3857    0.0000 C   0  0  0  0  0  0  0  0  0  0  0  0
    0.4256    2.4141    0.0000 H   0  0  0  0  0  0  0  0  0  0  0  0
   -1.0778    2.9614    0.0000 H   0  0  0  0  0  0  0  0  0  0  0  0
   -2.4000    1.3857    0.0000 C   0  0  0  0  0  0  0  0  0  0  0  0
   -2.1222    2.9614    0.0000 H   0  0  0  0  0  0  0  0  0  0  0  0
   -3.9036    1.9329    0.0000 H   0  0  0  0  0  0  0  0  0  0  0  0
   -3.2000   -0.0000    0.0000 C   0  0  0  0  0  0  0  0  0  0  0  0
   -4.4257    1.0285    0.0000 H   0  0  0  0  0  0  0  0  0  0  0  0
   -4.4257   -1.0285    0.0000 H   0  0  0  0  0  0  0  0  0  0  0  0
   -2.4000   -1.3857    0.0000 C   0  0  0  0  0  0  0  0  0  0  0  0
   -3.9036   -1.9329    0.0000 H   0  0  0  0  0  0  0  0  0  0  0  0
   -2.1222   -2.9613    0.0000 H   0  0  0  0  0  0  0  0  0  0  0  0
   -0.8001   -1.3857    0.0000 C   0  0  0  0  0  0  0  0  0  0  0  0
   -1.0778   -2.9613    0.0000 H   0  0  0  0  0  0  0  0  0  0  0  0
    0.7035   -1.9329    0.0000 H   0  0  0  0  0  0  0  0  0  0  0  0
    1.3857    0.8000    0.0000 H   0  0  0  0  0  0  0  0  0  0  0  0
  1  2  1  0  0  0  0
  2  3  1  0  0  0  0
  3  4  2  0  0  0  0
  3  5  1  0  0  0  0
  5  6  1  0  0  0  0
  2  7  1  0  0  0  0
  7  8  1  0  0  0  0
  7  9  1  0  0  0  0
  7 10  1  0  0  0  0
  2 11  1  0  0  0  0
 11 12  1  0  0  0  0
 11 13  1  0  0  0  0
 11 14  1  0  0  0  0
  1 15  1  0  0  0  0
 15 16  1  0  0  0  0
 16 17  1  0  0  0  0
 16 18  1  0  0  0  0
 16 19  1  0  0  0  0
 19 20  1  0  0  0  0
 19 21  1  0  0  0  0
 19 22  1  0  0  0  0
 22 23  1  0  0  0  0
 22 24  1  0  0  0  0
 22 25  1  0  0  0  0
 25 26  1  0  0  0  0
 25 27  1  0  0  0  0
 25 28  1  0  0  0  0
 28 15  1  0  0  0  0
 28 29  1  0  0  0  0
 28 30  1  0  0  0  0
 15 31  1  0  0  0  0
M  END
> <CAS>
91007-35-1

> <NAME>
Propanoic acid, 2-(cyclohexyloxy)-2-methyl-

> <preferred_name>
Propionic acid, 2-(cyclohexyloxy)-2-methyl-

> <iupac>
2-cyclohexyloxy-2-methylpropanoic acid

> <SMILES>
CC(C)(OC1CCCCC1)C(O)=O

> <Canonical_QSARr>
CC(C)(OC1CCCCC1)C(O)=O

> <InChI_Code_QSARr>
InChI=1S/C10H18O3/c1-10(2,9(11)12)13-8-6-4-3-5-7-8/h8H,3-7H2,1-2H3,(H,11,12)

> <InChI Key_QSARr>
OKFRDMBIDGPCCX-UHFFFAOYSA-N

> <Salt_Solvent>
?

> <WS Temperature>
20

> <WS Reference>
BEILSTEIN

> <dsstox_substance_id>
DTXSID00238366

> <LogMolar>
-1.0798

$$$$
93146-89-5
  -INDIGO-01081615412D

 14 13  0  0  0  0  0  0  0  0999 V2000
    3.2000    0.0000    0.0000 C   0  0  0  0  0  0  0  0  0  0  0  0
    1.6000    0.0000    0.0000 C   0  0  0  0  0  0  0  0  0  0  0  0
    1.6000   -1.6000    0.0000 Br  0  0  0  0  0  0  0  0  0  0  0  0
    1.6000    1.6000    0.0000 Br  0  0  0  0  0  0  0  0  0  0  0  0
    0.0000    0.0000    0.0000 C   0  0  0  0  0  0  0  0  0  0  0  0
   -1.6001   -0.0000    0.0000 C   0  0  0  0  0  0  0  0  0  0  0  0
   -3.2000   -0.0000    0.0000 H   0  0  0  0  0  0  0  0  0  0  0  0
   -2.4000   -1.3856    0.0000 H   0  0  0  0  0  0  0  0  0  0  0  0
   -2.4000    1.3856    0.0000 H   0  0  0  0  0  0  0  0  0  0  0  0
    0.0000    1.6000    0.0000 H   0  0  0  0  0  0  0  0  0  0  0  0
    0.0000   -1.6000    0.0000 H   0  0  0  0  0  0  0  0  0  0  0  0
    4.0001   -1.3856    0.0000 O   0  0  0  0  0  0  0  0  0  0  0  0
    5.6000   -1.3856    0.0000 H   0  0  0  0  0  0  0  0  0  0  0  0
    4.0001    1.3856    0.0000 O   0  0  0  0  0  0  0  0  0  0  0  0
  1  2  1  0  0  0  0
  2  3  1  0  0  0  0
  2  4  1  0  0  0  0
  2  5  1  0  0  0  0
  5  6  1  0  0  0  0
  6  7  1  0  0  0  0
  6  8  1  0  0  0  0
  6  9  1  0  0  0  0
  5 10  1  0  0  0  0
  5 11  1  0  0  0  0
  1 12  1  0  0  0  0
 12 13  1  0  0  0  0
  1 14  2  0  0  0  0
M  END
> <CAS>
93146-89-5

> <NAME>
Butanoic acid, 2,2-dibromo-

> <preferred_name>


> <iupac>


> <SMILES>
CCC(Br)(Br)C(O)=O

> <Canonical_QSARr>
CCC(Br)(Br)C(O)=O

> <InChI_Code_QSARr>
InChI=1S/C4H6Br2O2/c1-2-4(5,6)3(7)8/h2H2,1H3,(H,7,8)

> <InChI Key_QSARr>
QMHNFKJHFYCNRW-UHFFFAOYSA-N

> <Salt_Solvent>
?

> <WS Temperature>


> <WS Reference>
BEILSTEIN

> <dsstox_substance_id>


> <LogMolar>
-0.8722

$$$$
94593-91-6
  -INDIGO-01081615412D

 47 48  0  0  0  0  0  0  0  0999 V2000
    8.0001    2.7714    0.0000 C   0  0  0  0  0  0  0  0  0  0  0  0
    7.1999    1.3856    0.0000 O   0  0  0  0  0  0  0  0  0  0  0  0
    5.6000    1.3856    0.0000 C   0  0  0  0  0  0  0  0  0  0  0  0
    3.9999    1.3856    0.0000 C   0  0  0  0  0  0  0  0  0  0  0  0
    2.4000    1.3856    0.0000 O   0  0  0  0  0  0  0  0  0  0  0  0
    1.6001    0.0001    0.0000 C   0  0  0  0  0  0  0  0  0  0  0  0
   -0.0001    0.0001    0.0000 C   0  0  0  0  0  0  0  0  0  0  0  0
   -0.8000    1.3856    0.0000 S   0  0  0  0  0  0  0  0  0  0  0  0
   -2.1857    0.5856    0.0000 O   0  0  0  0  0  0  0  0  0  0  0  0
    0.5856    2.1857    0.0000 O   0  0  0  0  0  0  0  0  0  0  0  0
   -1.6000    2.7714    0.0000 N   0  0  0  0  0  0  0  0  0  0  0  0
   -3.2001    2.7714    0.0000 C   0  0  0  0  0  0  0  0  0  0  0  0
   -4.0001    1.3856    0.0000 O   0  0  0  0  0  0  0  0  0  0  0  0
   -5.5999    1.3856    0.0000 H   0  0  0  0  0  0  0  0  0  0  0  0
   -4.0001    4.1569    0.0000 N   0  0  0  0  0  0  0  0  0  0  0  0
   -5.5999    4.1569    0.0000 C   0  0  0  0  0  0  0  0  0  0  0  0
   -6.3999    5.5427    0.0000 N   0  0  0  0  0  0  0  0  0  0  0  0
   -8.0000    5.5427    0.0000 C   0  0  0  0  0  0  0  0  0  0  0  0
   -8.8000    6.9282    0.0000 O   0  0  0  0  0  0  0  0  0  0  0  0
   -8.0000    8.3139    0.0000 C   0  0  0  0  0  0  0  0  0  0  0  0
   -8.8000    9.6995    0.0000 H   0  0  0  0  0  0  0  0  0  0  0  0
   -7.2001    9.6995    0.0000 H   0  0  0  0  0  0  0  0  0  0  0  0
   -6.3999    8.3139    0.0000 H   0  0  0  0  0  0  0  0  0  0  0  0
   -8.8000    4.1569    0.0000 N   0  0  0  0  0  0  0  0  0  0  0  0
  -10.4001    4.1569    0.0000 H   0  0  0  0  0  0  0  0  0  0  0  0
   -8.0000    2.7714    0.0000 C   0  0  0  0  0  0  0  0  0  0  0  0
   -8.8000    1.3856    0.0000 O   0  0  0  0  0  0  0  0  0  0  0  0
  -10.4001    1.3856    0.0000 C   0  0  0  0  0  0  0  0  0  0  0  0
  -11.2001   -0.0001    0.0000 H   0  0  0  0  0  0  0  0  0  0  0  0
  -12.0000    1.3856    0.0000 H   0  0  0  0  0  0  0  0  0  0  0  0
   -9.5999   -0.0001    0.0000 H   0  0  0  0  0  0  0  0  0  0  0  0
   -6.3999    2.7714    0.0000 N   0  0  0  0  0  0  0  0  0  0  0  0
   -0.8000   -1.3856    0.0000 C   0  0  0  0  0  0  0  0  0  0  0  0
   -2.3999   -1.3856    0.0000 H   0  0  0  0  0  0  0  0  0  0  0  0
   -0.0001   -2.7712    0.0000 C   0  0  0  0  0  0  0  0  0  0  0  0
   -0.8000   -4.1569    0.0000 H   0  0  0  0  0  0  0  0  0  0  0  0
    1.6001   -2.7712    0.0000 C   0  0  0  0  0  0  0  0  0  0  0  0
    2.4000   -4.1569    0.0000 H   0  0  0  0  0  0  0  0  0  0  0  0
    2.4000   -1.3856    0.0000 C   0  0  0  0  0  0  0  0  0  0  0  0
    3.9999   -1.3856    0.0000 H   0  0  0  0  0  0  0  0  0  0  0  0
    3.9999    2.9856    0.0000 H   0  0  0  0  0  0  0  0  0  0  0  0
    3.9999   -0.2143    0.0000 H   0  0  0  0  0  0  0  0  0  0  0  0
    5.6000    2.9856    0.0000 H   0  0  0  0  0  0  0  0  0  0  0  0
    5.6000   -0.2143    0.0000 H   0  0  0  0  0  0  0  0  0  0  0  0
    9.6000    2.7714    0.0000 H   0  0  0  0  0  0  0  0  0  0  0  0
    8.8001    4.1569    0.0000 H   0  0  0  0  0  0  0  0  0  0  0  0
    7.1999    4.1569    0.0000 H   0  0  0  0  0  0  0  0  0  0  0  0
  1  2  1  0  0  0  0
  2  3  1  0  0  0  0
  3  4  1  0  0  0  0
  4  5  1  0  0  0  0
  5  6  1  0  0  0  0
  6  7  4  0  0  0  0
  7  8  1  0  0  0  0
  8  9  2  0  0  0  0
  8 10  2  0  0  0  0
  8 11  1  0  0  0  0
 11 12  2  0  0  0  0
 12 13  1  0  0  0  0
 13 14  1  0  0  0  0
 12 15  1  0  0  0  0
 15 16  2  0  0  0  0
 16 17  1  0  0  0  0
 17 18  2  0  0  0  0
 18 19  1  0  0  0  0
 19 20  1  0  0  0  0
 20 21  1  0  0  0  0
 20 22  1  0  0  0  0
 20 23  1  0  0  0  0
 18 24  1  0  0  0  0
 24 25  1  0  0  0  0
 24 26  1  0  0  0  0
 26 27  1  0  0  0  0
 27 28  1  0  0  0  0
 28 29  1  0  0  0  0
 28 30  1  0  0  0  0
 28 31  1  0  0  0  0
 26 32  2  0  0  0  0
 32 16  1  0  0  0  0
  7 33  4  0  0  0  0
 33 34  1  0  0  0  0
 33 35  4  0  0  0  0
 35 36  1  0  0  0  0
 35 37  4  0  0  0  0
 37 38  1  0  0  0  0
 37 39  4  0  0  0  0
 39  6  4  0  0  0  0
 39 40  1  0  0  0  0
  4 41  1  0  0  0  0
  4 42  1  0  0  0  0
  3 43  1  0  0  0  0
  3 44  1  0  0  0  0
  1 45  1  0  0  0  0
  1 46  1  0  0  0  0
  1 47  1  0  0  0  0
M  END
> <CAS>
94593-91-6

> <NAME>
CINOSULFURON

> <preferred_name>
Cinosulfuron

> <iupac>
N-[(4,6-dimethoxy-1,3,5-triazin-2-yl)carbamoyl]-2-(2-methoxyethoxy)benzenesulfonamide

> <SMILES>
COCCOc1ccccc1S(=O)(=O)N=C(O)N=C1N=C(NC(=N1)OC)OC

> <Canonical_QSARr>
COCCOc1ccccc1S(=O)(=O)N=C(O)N=C1N=C(NC(=N1)OC)OC

> <InChI_Code_QSARr>
InChI=1S/C15H19N5O7S/c1-24-8-9-27-10-6-4-5-7-11(10)28(22,23)20-13(21)16-12-17-14(25-2)19-15(18-12)26-3/h4-7H,8-9H2,1-3H3,(H2,16,17,18,19,20,21)

> <InChI Key_QSARr>
WMLPCIHUFDKWJU-UHFFFAOYSA-N

> <Salt_Solvent>
?

> <WS Temperature>
25

> <WS Reference>
TOMLIN,C (1997); pH 5

> <dsstox_substance_id>
DTXSID5058220

> <LogMolar>
-3.5372

$$$$
96182-53-5
  -INDIGO-01081615412D

 43 43  0  0  0  0  0  0  0  0999 V2000
    7.2001   -1.3857    0.0000 P   0  0  0  0  0  0  0  0  0  0  0  0
    6.4000    0.0001    0.0000 O   0  0  0  0  0  0  0  0  0  0  0  0
    4.7999    0.0001    0.0000 C   0  0  0  0  0  0  0  0  0  0  0  0
    4.0001    1.3857    0.0000 C   0  0  0  0  0  0  0  0  0  0  0  0
    4.7999    2.7713    0.0000 H   0  0  0  0  0  0  0  0  0  0  0  0
    2.3999    1.3857    0.0000 N   0  0  0  1  0  0  0  0  0  0  0  0
    1.5999    0.0001    0.0000 C   0  0  0  0  0  0  0  0  0  0  0  0
    0.0000    0.0001    0.0000 C   0  0  0  0  0  0  0  0  0  0  0  0
   -1.6001    0.0001    0.0000 C   0  0  0  0  0  0  0  0  0  0  0  0
   -3.2000    0.0001    0.0000 H   0  0  0  0  0  0  0  0  0  0  0  0
   -2.3999    1.3857    0.0000 H   0  0  0  0  0  0  0  0  0  0  0  0
   -2.3999   -1.3857    0.0000 H   0  0  0  0  0  0  0  0  0  0  0  0
    0.0000    1.6000    0.0000 C   0  0  0  0  0  0  0  0  0  0  0  0
    0.0000    3.2001    0.0000 H   0  0  0  0  0  0  0  0  0  0  0  0
   -1.3858    2.4000    0.0000 H   0  0  0  0  0  0  0  0  0  0  0  0
    1.3855    2.4000    0.0000 H   0  0  0  0  0  0  0  0  0  0  0  0
    0.0000   -1.6000    0.0000 C   0  0  0  0  0  0  0  0  0  0  0  0
    0.0000   -3.1999    0.0000 H   0  0  0  0  0  0  0  0  0  0  0  0
   -1.3855   -2.4000    0.0000 H   0  0  0  0  0  0  0  0  0  0  0  0
    1.3855   -2.4000    0.0000 H   0  0  0  0  0  0  0  0  0  0  0  0
    2.3999   -1.3857    0.0000 N   0  0  0  1  0  0  0  0  0  0  0  0
    4.0001   -1.3857    0.0000 C   0  0  0  0  0  0  0  0  0  0  0  0
    4.7999   -2.7713    0.0000 H   0  0  0  0  0  0  0  0  0  0  0  0
    8.5856   -0.5856    0.0000 O   0  0  0  0  0  0  0  0  0  0  0  0
    8.5856    1.0144    0.0000 C   0  0  0  0  0  0  0  0  0  0  0  0
    8.5856    2.6144    0.0000 C   0  0  0  0  0  0  0  0  0  0  0  0
    8.5856    4.2144    0.0000 H   0  0  0  0  0  0  0  0  0  0  0  0
    9.9713    3.4144    0.0000 H   0  0  0  0  0  0  0  0  0  0  0  0
    7.2001    3.4144    0.0000 H   0  0  0  0  0  0  0  0  0  0  0  0
   10.1857    1.0144    0.0000 H   0  0  0  0  0  0  0  0  0  0  0  0
    6.9857    1.0144    0.0000 H   0  0  0  0  0  0  0  0  0  0  0  0
    5.8143   -2.1856    0.0000 S   0  0  0  0  0  0  0  0  0  0  0  0
    8.0001   -2.7713    0.0000 O   0  0  0  0  0  0  0  0  0  0  0  0
    9.6000   -2.7713    0.0000 C   0  0  0  0  0  0  0  0  0  0  0  0
   11.2001   -2.7713    0.0000 C   0  0  0  0  0  0  0  0  0  0  0  0
   12.8000   -2.7713    0.0000 H   0  0  0  0  0  0  0  0  0  0  0  0
   11.9999   -4.1569    0.0000 H   0  0  0  0  0  0  0  0  0  0  0  0
   11.9999   -1.3857    0.0000 H   0  0  0  0  0  0  0  0  0  0  0  0
    9.6000   -4.3714    0.0000 C   0  0  0  0  0  0  0  0  0  0  0  0
    9.6000   -5.9713    0.0000 H   0  0  0  0  0  0  0  0  0  0  0  0
    8.2145   -5.1713    0.0000 H   0  0  0  0  0  0  0  0  0  0  0  0
   10.9858   -5.1713    0.0000 H   0  0  0  0  0  0  0  0  0  0  0  0
    9.6000   -1.1714    0.0000 H   0  0  0  0  0  0  0  0  0  0  0  0
  1  2  1  0  0  0  0
  2  3  1  0  0  0  0
  3  4  4  0  0  0  0
  4  5  1  0  0  0  0
  4  6  4  0  0  0  0
  6  7  4  0  0  0  0
  7  8  1  0  0  0  0
  8  9  1  0  0  0  0
  9 10  1  0  0  0  0
  9 11  1  0  0  0  0
  9 12  1  0  0  0  0
  8 13  1  0  0  0  0
 13 14  1  0  0  0  0
 13 15  1  0  0  0  0
 13 16  1  0  0  0  0
  8 17  1  0  0  0  0
 17 18  1  0  0  0  0
 17 19  1  0  0  0  0
 17 20  1  0  0  0  0
  7 21  4  0  0  0  0
 21 22  4  0  0  0  0
 22  3  4  0  0  0  0
 22 23  1  0  0  0  0
  1 24  1  0  0  0  0
 24 25  1  0  0  0  0
 25 26  1  0  0  0  0
 26 27  1  0  0  0  0
 26 28  1  0  0  0  0
 26 29  1  0  0  0  0
 25 30  1  0  0  0  0
 25 31  1  0  0  0  0
  1 32  2  0  0  0  0
  1 33  1  0  0  0  0
 33 34  1  0  0  0  0
 34 35  1  0  0  0  0
 35 36  1  0  0  0  0
 35 37  1  0  0  0  0
 35 38  1  0  0  0  0
 34 39  1  0  0  0  0
 39 40  1  0  0  0  0
 39 41  1  0  0  0  0
 39 42  1  0  0  0  0
 34 43  1  0  0  0  0
M  END
> <CAS>
96182-53-5

> <NAME>
TEBUPIRIMFOS

> <preferred_name>
Tebupirimfos

> <iupac>
O-(2-tert-butylpyrimidin-5-yl) O-ethyl O-propan-2-yl phosphorothioate

> <SMILES>
CCOP(=S)(Oc1c[n]c([n]c1)C(C)(C)C)OC(C)C

> <Canonical_QSARr>
CCOP(=S)(Oc1c[n]c([n]c1)C(C)(C)C)OC(C)C

> <InChI_Code_QSARr>
InChI=1S/C13H23N2O3PS/c1-7-16-19(20,17-10(2)3)18-11-8-14-12(15-9-11)13(4,5)6/h8-10H,7H2,1-6H3

> <InChI Key_QSARr>
AWYOMXWDGWUJHS-UHFFFAOYSA-N

> <Salt_Solvent>
?

> <WS Temperature>
20

> <WS Reference>
TOMLIN,C (1997); pH 7

> <dsstox_substance_id>
DTXSID1032482

> <LogMolar>
-4.7626

$$$$
97383-42-1
  -INDIGO-01081615412D

 28 29  0  0  0  0  0  0  0  0999 V2000
   -1.5757    0.2778    0.0000 S   0  0  0  0  0  0  0  0  0  0  0  0
   -3.1514    0.5556    0.0000 C   0  0  0  0  0  0  0  0  0  0  0  0
   -3.6986    2.0592    0.0000 C   0  0  0  0  0  0  0  0  0  0  0  0
   -2.6702    3.2849    0.0000 H   0  0  0  0  0  0  0  0  0  0  0  0
   -5.2743    2.3370    0.0000 C   0  0  0  0  0  0  0  0  0  0  0  0
   -5.8216    3.8405    0.0000 H   0  0  0  0  0  0  0  0  0  0  0  0
   -6.3028    1.1114    0.0000 C   0  0  0  0  0  0  0  0  0  0  0  0
   -7.8785    1.3892    0.0000 H   0  0  0  0  0  0  0  0  0  0  0  0
   -5.7555   -0.3922    0.0000 C   0  0  0  0  0  0  0  0  0  0  0  0
   -6.7840   -1.6179    0.0000 H   0  0  0  0  0  0  0  0  0  0  0  0
   -4.1798   -0.6700    0.0000 C   0  0  0  0  0  0  0  0  0  0  0  0
   -3.6326   -2.1735    0.0000 H   0  0  0  0  0  0  0  0  0  0  0  0
   -0.0000    0.0000    0.0000 C   0  0  0  0  0  0  0  0  0  0  0  0
    0.5472    1.5035    0.0000 C   0  0  0  0  0  0  0  0  0  0  0  0
   -0.4812    2.7291    0.0000 O   0  0  0  0  0  0  0  0  0  0  0  0
    2.1229    1.7813    0.0000 O   0  0  0  0  0  0  0  0  0  0  0  0
    2.6702    3.2849    0.0000 C   0  0  0  0  0  0  0  0  0  0  0  0
    3.2174    4.7884    0.0000 H   0  0  0  0  0  0  0  0  0  0  0  0
    4.2458    3.5627    0.0000 H   0  0  0  0  0  0  0  0  0  0  0  0
    1.6417    4.5105    0.0000 H   0  0  0  0  0  0  0  0  0  0  0  0
   -0.0000   -1.6000    0.0000 C   0  0  0  0  0  0  0  0  0  0  0  0
   -1.2257   -2.6284    0.0000 H   0  0  0  0  0  0  0  0  0  0  0  0
    0.5472   -3.1035    0.0000 H   0  0  0  0  0  0  0  0  0  0  0  0
    1.3857   -0.8000    0.0000 C   0  0  0  0  0  0  0  0  0  0  0  0
    2.4141   -2.0257    0.0000 H   0  0  0  0  0  0  0  0  0  0  0  0
    2.4141    0.4257    0.0000 H   0  0  0  0  0  0  0  0  0  0  0  0
   -1.2978    1.8536    0.0000 O   0  0  0  0  0  0  0  0  0  0  0  0
   -1.8536   -1.2979    0.0000 O   0  0  0  0  0  0  0  0  0  0  0  0
  1  2  1  0  0  0  0
  2  3  4  0  0  0  0
  3  4  1  0  0  0  0
  3  5  4  0  0  0  0
  5  6  1  0  0  0  0
  5  7  4  0  0  0  0
  7  8  1  0  0  0  0
  7  9  4  0  0  0  0
  9 10  1  0  0  0  0
  9 11  4  0  0  0  0
 11  2  4  0  0  0  0
 11 12  1  0  0  0  0
  1 13  1  0  0  0  0
 13 14  1  0  0  0  0
 14 15  2  0  0  0  0
 14 16  1  0  0  0  0
 16 17  1  0  0  0  0
 17 18  1  0  0  0  0
 17 19  1  0  0  0  0
 17 20  1  0  0  0  0
 13 21  1  0  0  0  0
 21 22  1  0  0  0  0
 21 23  1  0  0  0  0
 21 24  1  0  0  0  0
 24 13  1  0  0  0  0
 24 25  1  0  0  0  0
 24 26  1  0  0  0  0
  1 27  2  0  0  0  0
  1 28  2  0  0  0  0
M  END
> <CAS>
97383-42-1

> <NAME>
Methyl (1-phenylsulfonyl) cyclopropane carboxyla

> <preferred_name>
Cyclopropanecarboxylic acid, 1-(phenylsulfonyl)-, methyl ester

> <iupac>
methyl 1-phenylsulfonylcyclopropane-1-carboxylate

> <SMILES>
COC(=O)C1(CC1)S(=O)(=O)c1ccccc1

> <Canonical_QSARr>
COC(=O)C1(CC1)S(=O)(=O)c1ccccc1

> <InChI_Code_QSARr>
InChI=1S/C11H12O4S/c1-15-10(12)11(7-8-11)16(13,14)9-5-3-2-4-6-9/h2-6H,7-8H2,1H3

> <InChI Key_QSARr>
OACLWBSJZSLACO-UHFFFAOYSA-N

> <Salt_Solvent>
?

> <WS Temperature>
25

> <WS Reference>
HE,Y ET AL. (1995B)

> <dsstox_substance_id>
DTXSID30242911

> <LogMolar>
-2.2601

$$$$
97886-45-8
  -INDIGO-01081615412D

 41 41  0  0  0  0  0  0  0  0999 V2000
    3.1999    5.5425    0.0000 N   0  0  0  1  0  0  0  0  0  0  0  0
    1.5999    5.5425    0.0000 C   0  0  0  0  0  0  0  0  0  0  0  0
    0.8001    6.9282    0.0000 C   0  0  0  0  0  0  0  0  0  0  0  0
    0.0001    8.3138    0.0000 F   0  0  0  0  0  0  0  0  0  0  0  0
    1.5999    8.3138    0.0000 F   0  0  0  0  0  0  0  0  0  0  0  0
   -0.7999    6.9282    0.0000 H   0  0  0  0  0  0  0  0  0  0  0  0
    0.8001    4.1569    0.0000 C   0  0  0  0  0  0  0  0  0  0  0  0
   -0.7999    4.1569    0.0000 C   0  0  0  0  0  0  0  0  0  0  0  0
   -1.6000    5.5425    0.0000 S   0  0  0  0  0  0  0  0  0  0  0  0
   -3.2000    5.5425    0.0000 C   0  0  0  0  0  0  0  0  0  0  0  0
   -4.8000    5.5425    0.0000 H   0  0  0  0  0  0  0  0  0  0  0  0
   -4.0000    6.9282    0.0000 H   0  0  0  0  0  0  0  0  0  0  0  0
   -4.0000    4.1569    0.0000 H   0  0  0  0  0  0  0  0  0  0  0  0
   -1.6000    2.7713    0.0000 O   0  0  0  0  0  0  0  0  0  0  0  0
    1.6001    2.7713    0.0000 C   0  0  0  0  0  0  0  0  0  0  0  0
    0.8001    1.3857    0.0000 C   0  0  0  0  0  0  0  0  0  0  0  0
    0.0001   -0.0001    0.0000 C   0  0  0  0  0  0  0  0  0  0  0  0
   -1.2257   -1.0285    0.0000 C   0  0  0  0  0  0  0  0  0  0  0  0
   -2.4513   -2.0569    0.0000 H   0  0  0  0  0  0  0  0  0  0  0  0
   -2.7293   -0.4812    0.0000 H   0  0  0  0  0  0  0  0  0  0  0  0
   -0.9478   -2.6042    0.0000 H   0  0  0  0  0  0  0  0  0  0  0  0
    1.3856   -0.8001    0.0000 C   0  0  0  0  0  0  0  0  0  0  0  0
    2.7712   -1.6001    0.0000 H   0  0  0  0  0  0  0  0  0  0  0  0
    1.3856   -2.4001    0.0000 H   0  0  0  0  0  0  0  0  0  0  0  0
    0.0001   -1.6001    0.0000 H   0  0  0  0  0  0  0  0  0  0  0  0
   -1.3857    0.7999    0.0000 H   0  0  0  0  0  0  0  0  0  0  0  0
   -0.5857    2.1857    0.0000 H   0  0  0  0  0  0  0  0  0  0  0  0
    2.1857    0.5857    0.0000 H   0  0  0  0  0  0  0  0  0  0  0  0
    3.1999    2.7713    0.0000 C   0  0  0  0  0  0  0  0  0  0  0  0
    3.9999    1.3857    0.0000 C   0  0  0  0  0  0  0  0  0  0  0  0
    5.6000    1.3857    0.0000 S   0  0  0  0  0  0  0  0  0  0  0  0
    6.4000   -0.0001    0.0000 C   0  0  0  0  0  0  0  0  0  0  0  0
    7.2000   -1.3857    0.0000 H   0  0  0  0  0  0  0  0  0  0  0  0
    8.0000   -0.0001    0.0000 H   0  0  0  0  0  0  0  0  0  0  0  0
    5.6000   -1.3857    0.0000 H   0  0  0  0  0  0  0  0  0  0  0  0
    3.1999   -0.0001    0.0000 O   0  0  0  0  0  0  0  0  0  0  0  0
    3.9999    4.1569    0.0000 C   0  0  0  0  0  0  0  0  0  0  0  0
    5.6000    4.1569    0.0000 C   0  0  0  0  0  0  0  0  0  0  0  0
    7.2000    4.1569    0.0000 F   0  0  0  0  0  0  0  0  0  0  0  0
    6.4000    5.5425    0.0000 F   0  0  0  0  0  0  0  0  0  0  0  0
    6.4000    2.7713    0.0000 F   0  0  0  0  0  0  0  0  0  0  0  0
  1  2  4  0  0  0  0
  2  3  1  0  0  0  0
  3  4  1  0  0  0  0
  3  5  1  0  0  0  0
  3  6  1  0  0  0  0
  2  7  4  0  0  0  0
  7  8  1  0  0  0  0
  8  9  1  0  0  0  0
  9 10  1  0  0  0  0
 10 11  1  0  0  0  0
 10 12  1  0  0  0  0
 10 13  1  0  0  0  0
  8 14  2  0  0  0  0
  7 15  4  0  0  0  0
 15 16  1  0  0  0  0
 16 17  1  0  0  0  0
 17 18  1  0  0  0  0
 18 19  1  0  0  0  0
 18 20  1  0  0  0  0
 18 21  1  0  0  0  0
 17 22  1  0  0  0  0
 22 23  1  0  0  0  0
 22 24  1  0  0  0  0
 22 25  1  0  0  0  0
 17 26  1  0  0  0  0
 16 27  1  0  0  0  0
 16 28  1  0  0  0  0
 15 29  4  0  0  0  0
 29 30  1  0  0  0  0
 30 31  1  0  0  0  0
 31 32  1  0  0  0  0
 32 33  1  0  0  0  0
 32 34  1  0  0  0  0
 32 35  1  0  0  0  0
 30 36  2  0  0  0  0
 29 37  4  0  0  0  0
 37  1  4  0  0  0  0
 37 38  1  0  0  0  0
 38 39  1  0  0  0  0
 38 40  1  0  0  0  0
 38 41  1  0  0  0  0
M  END
> <CAS>
97886-45-8

> <NAME>
Dithiopyr

> <preferred_name>
Dithiopyr

> <iupac>
S~3~,S~5~-dimethyl 2-(difluoromethyl)-4-(2-methylpropyl)-6-(trifluoromethyl)pyridine-3,5-dicarbothioate

> <SMILES>
CC(C)Cc1c(c([n]c(c1C(=O)SC)C(F)(F)F)C(F)F)C(=O)SC

> <Canonical_QSARr>
CC(C)Cc1c(c([n]c(c1C(=O)SC)C(F)(F)F)C(F)F)C(=O)SC

> <InChI_Code_QSARr>
InChI=1S/C15H16F5NO2S2/c1-6(2)5-7-8(13(22)24-3)10(12(16)17)21-11(15(18,19)20)9(7)14(23)25-4/h6,12H,5H2,1-4H3

> <InChI Key_QSARr>
YUBJPYNSGLJZPQ-UHFFFAOYSA-N

> <Salt_Solvent>
?

> <WS Temperature>
20

> <WS Reference>
TOMLIN,C (1994)

> <dsstox_substance_id>
DTXSID9032379

> <LogMolar>
-5.4575

$$$$
98730-04-2
  -INDIGO-01081615412D

 27 28  0  0  0  0  0  0  0  0999 V2000
   -2.4000    1.3856    0.0000 O   0  0  0  0  0  0  0  0  0  0  0  0
   -3.2000   -0.0000    0.0000 C   0  0  0  0  0  0  0  0  0  0  0  0
   -4.8001   -0.0000    0.0000 C   0  0  0  0  0  0  0  0  0  0  0  0
   -5.6000   -1.3857    0.0000 C   0  0  0  0  0  0  0  0  0  0  0  0
   -4.8001   -2.7713    0.0000 C   0  0  0  0  0  0  0  0  0  0  0  0
   -3.2000   -2.7713    0.0000 C   0  0  0  0  0  0  0  0  0  0  0  0
   -2.4000   -4.1569    0.0000 H   0  0  0  0  0  0  0  0  0  0  0  0
   -2.4000   -1.3857    0.0000 C   0  0  0  0  0  0  0  0  0  0  0  0
   -0.8000   -1.3857    0.0000 N   0  0  0  0  0  0  0  0  0  0  0  0
   -0.0001   -2.7713    0.0000 C   0  0  0  0  0  0  0  0  0  0  0  0
    1.6000   -2.7713    0.0000 C   0  0  0  0  0  0  0  0  0  0  0  0
    2.4000   -4.1569    0.0000 Cl  0  0  0  0  0  0  0  0  0  0  0  0
    3.2000   -2.7713    0.0000 Cl  0  0  0  0  0  0  0  0  0  0  0  0
    0.8001   -4.1569    0.0000 H   0  0  0  0  0  0  0  0  0  0  0  0
   -0.8000   -4.1569    0.0000 O   0  0  0  0  0  0  0  0  0  0  0  0
   -0.0001   -0.0000    0.0000 C   0  0  0  0  0  0  0  0  0  0  0  0
    1.5036    0.5472    0.0000 C   0  0  0  0  0  0  0  0  0  0  0  0
    3.0070    1.0944    0.0000 H   0  0  0  0  0  0  0  0  0  0  0  0
    2.7292   -0.4812    0.0000 H   0  0  0  0  0  0  0  0  0  0  0  0
    1.7813    2.1229    0.0000 H   0  0  0  0  0  0  0  0  0  0  0  0
    1.2257   -1.0284    0.0000 H   0  0  0  0  0  0  0  0  0  0  0  0
   -0.8000    1.3856    0.0000 C   0  0  0  0  0  0  0  0  0  0  0  0
    0.5857    2.1857    0.0000 H   0  0  0  0  0  0  0  0  0  0  0  0
   -1.0779    2.9613    0.0000 H   0  0  0  0  0  0  0  0  0  0  0  0
   -5.6000   -4.1569    0.0000 H   0  0  0  0  0  0  0  0  0  0  0  0
   -7.2000   -1.3857    0.0000 H   0  0  0  0  0  0  0  0  0  0  0  0
   -5.6000    1.3856    0.0000 H   0  0  0  0  0  0  0  0  0  0  0  0
  1  2  1  0  0  0  0
  2  3  4  0  0  0  0
  3  4  4  0  0  0  0
  4  5  4  0  0  0  0
  5  6  4  0  0  0  0
  6  7  1  0  0  0  0
  6  8  4  0  0  0  0
  8  2  4  0  0  0  0
  8  9  1  0  0  0  0
  9 10  1  0  0  0  0
 10 11  1  0  0  0  0
 11 12  1  0  0  0  0
 11 13  1  0  0  0  0
 11 14  1  0  0  0  0
 10 15  2  0  0  0  0
  9 16  1  0  0  0  0
 16 17  1  0  0  0  0
 17 18  1  0  0  0  0
 17 19  1  0  0  0  0
 17 20  1  0  0  0  0
 16 21  1  0  0  0  0
 16 22  1  0  0  0  0
 22  1  1  0  0  0  0
 22 23  1  0  0  0  0
 22 24  1  0  0  0  0
  5 25  1  0  0  0  0
  4 26  1  0  0  0  0
  3 27  1  0  0  0  0
M  END
> <CAS>
98730-04-2

> <NAME>
BENOXACOR

> <preferred_name>
Benoxacor

> <iupac>
2,2-dichloro-1-(3-methyl-2,3-dihydro-4H-1,4-benzoxazin-4-yl)ethanone

> <SMILES>
CC1COc2ccccc2N1C(=O)C(Cl)Cl

> <Canonical_QSARr>
CC1COc2ccccc2N1C(=O)C(Cl)Cl

> <InChI_Code_QSARr>
InChI=1S/C11H11Cl2NO2/c1-7-6-16-9-5-3-2-4-8(9)14(7)11(15)10(12)13/h2-5,7,10H,6H2,1H3

> <InChI Key_QSARr>
PFJJMJDEVDLPNE-UHFFFAOYSA-N

> <Salt_Solvent>
?

> <WS Temperature>
20

> <WS Reference>
TOMLIN,C (1994)

> <dsstox_substance_id>
DTXSID3029572

> <LogMolar>
-4.1141

$$$$
99105-77-8
  -INDIGO-01081615412D

 34 35  0  0  0  0  0  0  0  0999 V2000
    8.7433    1.7077    0.0000 C   0  0  0  0  0  0  0  0  0  0  0  0
    7.2397    1.1605    0.0000 S   0  0  0  0  0  0  0  0  0  0  0  0
    7.7869   -0.3430    0.0000 O   0  0  0  0  0  0  0  0  0  0  0  0
    6.6925    2.6640    0.0000 O   0  0  0  0  0  0  0  0  0  0  0  0
    5.7363    0.6132    0.0000 C   0  0  0  0  0  0  0  0  0  0  0  0
    4.5105    1.6417    0.0000 C   0  0  0  0  0  0  0  0  0  0  0  0
    4.7884    3.2174    0.0000 H   0  0  0  0  0  0  0  0  0  0  0  0
    3.0069    1.0945    0.0000 C   0  0  0  0  0  0  0  0  0  0  0  0
    1.7814    2.1230    0.0000 Cl  0  0  0  0  0  0  0  0  0  0  0  0
    2.7293   -0.4812    0.0000 C   0  0  0  0  0  0  0  0  0  0  0  0
    1.2257   -1.0284    0.0000 C   0  0  0  0  0  0  0  0  0  0  0  0
    0.9478   -2.6041    0.0000 O   0  0  0  0  0  0  0  0  0  0  0  0
   -0.0001    0.0000    0.0000 C   0  0  0  0  0  0  0  0  0  0  0  0
   -0.8001    1.3856    0.0000 C   0  0  0  0  0  0  0  0  0  0  0  0
   -0.0001    2.7712    0.0000 O   0  0  0  0  0  0  0  0  0  0  0  0
   -2.3999    1.3856    0.0000 C   0  0  0  0  0  0  0  0  0  0  0  0
   -2.1221    2.9613    0.0000 H   0  0  0  0  0  0  0  0  0  0  0  0
   -3.9036    1.9329    0.0000 H   0  0  0  0  0  0  0  0  0  0  0  0
   -3.1999    0.0000    0.0000 C   0  0  0  0  0  0  0  0  0  0  0  0
   -4.4257    1.0285    0.0000 H   0  0  0  0  0  0  0  0  0  0  0  0
   -4.4257   -1.0284    0.0000 H   0  0  0  0  0  0  0  0  0  0  0  0
   -2.3999   -1.3857    0.0000 C   0  0  0  0  0  0  0  0  0  0  0  0
   -3.9036   -1.9329    0.0000 H   0  0  0  0  0  0  0  0  0  0  0  0
   -2.1221   -2.9614    0.0000 H   0  0  0  0  0  0  0  0  0  0  0  0
   -0.8001   -1.3857    0.0000 C   0  0  0  0  0  0  0  0  0  0  0  0
   -0.0001   -2.7713    0.0000 O   0  0  0  0  0  0  0  0  0  0  0  0
    1.2257    1.0285    0.0000 H   0  0  0  0  0  0  0  0  0  0  0  0
    3.9548   -1.5097    0.0000 C   0  0  0  0  0  0  0  0  0  0  0  0
    3.6770   -3.0854    0.0000 H   0  0  0  0  0  0  0  0  0  0  0  0
    5.4585   -0.9625    0.0000 C   0  0  0  0  0  0  0  0  0  0  0  0
    6.6840   -1.9909    0.0000 H   0  0  0  0  0  0  0  0  0  0  0  0
   10.2467    2.2549    0.0000 H   0  0  0  0  0  0  0  0  0  0  0  0
    9.9689    0.6792    0.0000 H   0  0  0  0  0  0  0  0  0  0  0  0
    9.0209    3.2834    0.0000 H   0  0  0  0  0  0  0  0  0  0  0  0
  1  2  1  0  0  0  0
  2  3  2  0  0  0  0
  2  4  2  0  0  0  0
  2  5  1  0  0  0  0
  5  6  4  0  0  0  0
  6  7  1  0  0  0  0
  6  8  4  0  0  0  0
  8  9  1  0  0  0  0
  8 10  4  0  0  0  0
 10 11  1  0  0  0  0
 11 12  2  0  0  0  0
 11 13  1  0  0  0  0
 13 14  1  0  0  0  0
 14 15  2  0  0  0  0
 14 16  1  0  0  0  0
 16 17  1  0  0  0  0
 16 18  1  0  0  0  0
 16 19  1  0  0  0  0
 19 20  1  0  0  0  0
 19 21  1  0  0  0  0
 19 22  1  0  0  0  0
 22 23  1  0  0  0  0
 22 24  1  0  0  0  0
 22 25  1  0  0  0  0
 25 13  1  0  0  0  0
 25 26  2  0  0  0  0
 13 27  1  0  0  0  0
 10 28  4  0  0  0  0
 28 29  1  0  0  0  0
 28 30  4  0  0  0  0
 30  5  4  0  0  0  0
 30 31  1  0  0  0  0
  1 32  1  0  0  0  0
  1 33  1  0  0  0  0
  1 34  1  0  0  0  0
M  END
> <CAS>
99105-77-8

> <NAME>
ICIA0051 (sulcotrione)

> <preferred_name>
Sulcotrione

> <iupac>
2-[2-chloro-4-(methylsulfonyl)benzoyl]cyclohexane-1,3-dione

> <SMILES>
CS(=O)(=O)c1cc(Cl)c(cc1)C(=O)C1C(=O)CCCC1=O

> <Canonical_QSARr>
CS(=O)(=O)c1cc(Cl)c(cc1)C(=O)C1C(=O)CCCC1=O

> <InChI_Code_QSARr>
InChI=1S/C14H13ClO5S/c1-21(19,20)8-5-6-9(10(15)7-8)14(18)13-11(16)3-2-4-12(13)17/h5-7,13H,2-4H2,1H3

> <InChI Key_QSARr>
PQTBTIFWAXVEPB-UHFFFAOYSA-N

> <Salt_Solvent>
?

> <WS Temperature>
25

> <WS Reference>
TOMLIN,C (1997)

> <dsstox_substance_id>
DTXSID9058230

> <LogMolar>
-3.2994

$$$$
99512-70-6
  -INDIGO-01081615412D

 20 21  0  0  0  0  0  0  0  0999 V2000
   -0.0000    2.7713    0.0000 N   0  0  0  1  0  0  0  0  0  0  0  0
    1.6000    2.7713    0.0000 C   0  0  0  0  0  0  0  0  0  0  0  0
    2.4001    4.1569    0.0000 H   0  0  0  0  0  0  0  0  0  0  0  0
    2.4001    1.3856    0.0000 N   0  0  0  1  0  0  0  0  0  0  0  0
    1.6000   -0.0000    0.0000 C   0  0  0  0  0  0  0  0  0  0  0  0
    2.4001   -1.3856    0.0000 C   0  0  0  0  0  0  0  0  0  0  0  0
    3.2000   -2.7713    0.0000 H   0  0  0  0  0  0  0  0  0  0  0  0
    4.0000   -1.3856    0.0000 H   0  0  0  0  0  0  0  0  0  0  0  0
    1.6000   -2.7713    0.0000 H   0  0  0  0  0  0  0  0  0  0  0  0
   -0.0000   -0.0000    0.0000 C   0  0  0  0  0  0  0  0  0  0  0  0
   -0.8000   -1.3856    0.0000 C   0  0  0  0  0  0  0  0  0  0  0  0
   -2.4000   -1.3856    0.0000 C   0  0  0  0  0  0  0  0  0  0  0  0
   -3.2001   -0.0000    0.0000 C   0  0  0  0  0  0  0  0  0  0  0  0
   -2.4000    1.3856    0.0000 C   0  0  0  0  0  0  0  0  0  0  0  0
   -3.2001    2.7713    0.0000 O   0  0  0  0  0  0  0  0  0  0  0  0
   -4.8000    2.7713    0.0000 H   0  0  0  0  0  0  0  0  0  0  0  0
   -0.8000    1.3856    0.0000 C   0  0  0  0  0  0  0  0  0  0  0  0
   -4.8000   -0.0000    0.0000 H   0  0  0  0  0  0  0  0  0  0  0  0
   -3.2001   -2.7713    0.0000 H   0  0  0  0  0  0  0  0  0  0  0  0
   -0.0000   -2.7713    0.0000 H   0  0  0  0  0  0  0  0  0  0  0  0
  1  2  4  0  0  0  0
  2  3  1  0  0  0  0
  2  4  4  0  0  0  0
  4  5  4  0  0  0  0
  5  6  1  0  0  0  0
  6  7  1  0  0  0  0
  6  8  1  0  0  0  0
  6  9  1  0  0  0  0
  5 10  4  0  0  0  0
 10 11  4  0  0  0  0
 11 12  4  0  0  0  0
 12 13  4  0  0  0  0
 13 14  4  0  0  0  0
 14 15  1  0  0  0  0
 15 16  1  0  0  0  0
 14 17  4  0  0  0  0
 17  1  4  0  0  0  0
 17 10  4  0  0  0  0
 13 18  1  0  0  0  0
 12 19  1  0  0  0  0
 11 20  1  0  0  0  0
M  END
> <CAS>
99512-70-6

> <NAME>
8-Quinazolinol, 4-methyl-

> <preferred_name>


> <iupac>


> <SMILES>
Cc1[n]c[n]c2c(O)cccc21

> <Canonical_QSARr>
Cc1[n]c[n]c2c(O)cccc21

> <InChI_Code_QSARr>
InChI=1S/C9H8N2O/c1-6-7-3-2-4-8(12)9(7)11-5-10-6/h2-5,12H,1H3

> <InChI Key_QSARr>
RSHKEEMIDCYLTC-UHFFFAOYSA-N

> <Salt_Solvent>
?

> <WS Temperature>
20

> <WS Reference>
BEILSTEIN

> <dsstox_substance_id>


> <LogMolar>
-2.6025

$$$$
99991-56-7
  -INDIGO-01081615412D

 35 35  0  0  0  0  0  0  0  0999 V2000
    4.9184    3.1036    0.0000 N   0  0  0  0  0  0  0  0  0  0  0  0
    4.3713    1.6000    0.0000 C   0  0  0  0  0  0  0  0  0  0  0  0
    2.9856    2.4000    0.0000 C   0  0  0  0  0  0  0  0  0  0  0  0
    4.0141    3.6257    0.0000 H   0  0  0  0  0  0  0  0  0  0  0  0
    1.9571    3.6257    0.0000 H   0  0  0  0  0  0  0  0  0  0  0  0
    1.6001    1.6000    0.0000 C   0  0  0  0  0  0  0  0  0  0  0  0
    1.0528    3.1036    0.0000 H   0  0  0  0  0  0  0  0  0  0  0  0
    0.2144    0.8000    0.0000 H   0  0  0  0  0  0  0  0  0  0  0  0
    1.6001   -0.0000    0.0000 C   0  0  0  0  0  0  0  0  0  0  0  0
    0.0000   -0.0000    0.0000 C   0  0  0  0  0  0  0  0  0  0  0  0
   -1.6001   -0.0000    0.0000 C   0  0  0  0  0  0  0  0  0  0  0  0
   -3.1999   -0.0000    0.0000 C   0  0  0  0  0  0  0  0  0  0  0  0
   -4.8000   -0.0000    0.0000 H   0  0  0  0  0  0  0  0  0  0  0  0
   -4.0001   -1.3857    0.0000 H   0  0  0  0  0  0  0  0  0  0  0  0
   -4.0001    1.3857    0.0000 H   0  0  0  0  0  0  0  0  0  0  0  0
   -1.6001   -1.6000    0.0000 H   0  0  0  0  0  0  0  0  0  0  0  0
   -1.8778    1.5757    0.0000 H   0  0  0  0  0  0  0  0  0  0  0  0
    0.0000   -1.6000    0.0000 C   0  0  0  0  0  0  0  0  0  0  0  0
    0.0000   -3.2000    0.0000 H   0  0  0  0  0  0  0  0  0  0  0  0
   -1.3857   -2.4000    0.0000 H   0  0  0  0  0  0  0  0  0  0  0  0
    1.2256   -2.6284    0.0000 H   0  0  0  0  0  0  0  0  0  0  0  0
    0.0000    1.6000    0.0000 C   0  0  0  0  0  0  0  0  0  0  0  0
   -1.3857    2.4000    0.0000 H   0  0  0  0  0  0  0  0  0  0  0  0
   -0.2778    3.1757    0.0000 H   0  0  0  0  0  0  0  0  0  0  0  0
   -1.3857    0.8000    0.0000 H   0  0  0  0  0  0  0  0  0  0  0  0
    1.0528   -1.5036    0.0000 H   0  0  0  0  0  0  0  0  0  0  0  0
    2.9856   -0.8000    0.0000 C   0  0  0  0  0  0  0  0  0  0  0  0
    2.1857   -2.1857    0.0000 H   0  0  0  0  0  0  0  0  0  0  0  0
    4.0141   -2.0257    0.0000 H   0  0  0  0  0  0  0  0  0  0  0  0
    4.3713   -0.0000    0.0000 C   0  0  0  0  0  0  0  0  0  0  0  0
    5.9469    0.2779    0.0000 N   0  0  0  0  0  0  0  0  0  0  0  0
    6.9754   -0.9478    0.0000 O   0  0  0  0  0  0  0  0  0  0  0  0
    4.9184   -1.5036    0.0000 H   0  0  0  0  0  0  0  0  0  0  0  0
    5.9469    1.3221    0.0000 H   0  0  0  0  0  0  0  0  0  0  0  0
    6.4942    3.3813    0.0000 O   0  0  0  0  0  0  0  0  0  0  0  0
  1  2  1  0  0  0  0
  2  3  1  0  0  0  0
  3  4  1  0  0  0  0
  3  5  1  0  0  0  0
  3  6  1  0  0  0  0
  6  7  1  0  0  0  0
  6  8  1  0  0  0  0
  6  9  1  0  0  0  0
  9 10  1  0  0  0  0
 10 11  1  0  0  0  0
 11 12  1  0  0  0  0
 12 13  1  0  0  0  0
 12 14  1  0  0  0  0
 12 15  1  0  0  0  0
 11 16  1  0  0  0  0
 11 17  1  0  0  0  0
 10 18  1  0  0  0  0
 18 19  1  0  0  0  0
 18 20  1  0  0  0  0
 18 21  1  0  0  0  0
 10 22  1  0  0  0  0
 22 23  1  0  0  0  0
 22 24  1  0  0  0  0
 22 25  1  0  0  0  0
  9 26  1  0  0  0  0
  9 27  1  0  0  0  0
 27 28  1  0  0  0  0
 27 29  1  0  0  0  0
 27 30  1  0  0  0  0
 30  2  1  0  0  0  0
 30 31  1  0  0  0  0
 31 32  2  0  0  0  0
 30 33  1  0  0  0  0
  2 34  1  0  0  0  0
  1 35  2  0  0  0  0
M  END
> <CAS>
99991-56-7

> <NAME>
1,2-Cyclohexanedione, 4-tert-pentyl-, dioxime

> <preferred_name>


> <iupac>


> <SMILES>
CCC(C)(C)C1CC(=NO)C(CC1)=NO

> <Canonical_QSARr>
CCC(C)(C)C1CC(N=O)C(CC1)N=O

> <InChI_Code_QSARr>
InChI=1S/C11H20N2O2/c1-4-11(2,3)8-5-6-9(12-14)10(7-8)13-15/h8-10H,4-7H2,1-3H3

> <InChI Key_QSARr>
FLFHOVITVVJWGP-UHFFFAOYSA-N

> <Salt_Solvent>
?

> <WS Temperature>
25

> <WS Reference>
BEILSTEIN

> <dsstox_substance_id>


> <LogMolar>
-3.9652

$$$$
100784-20-1
  -INDIGO-01081615412D

 43 44  0  0  0  0  0  0  0  0999 V2000
    0.0001   -0.0000    0.0000 C   0  0  0  0  0  0  0  0  0  0  0  0
   -1.5217    0.4945    0.0000 N   0  0  0  1  0  0  0  0  0  0  0  0
   -2.0162    2.0162    0.0000 C   0  0  0  0  0  0  0  0  0  0  0  0
   -2.5104    3.5378    0.0000 H   0  0  0  0  0  0  0  0  0  0  0  0
   -3.5812    2.3489    0.0000 H   0  0  0  0  0  0  0  0  0  0  0  0
   -0.9455    3.2051    0.0000 H   0  0  0  0  0  0  0  0  0  0  0  0
   -2.4622   -0.8000    0.0000 N   0  0  0  1  0  0  0  0  0  0  0  0
   -1.5217   -2.0944    0.0000 C   0  0  0  0  0  0  0  0  0  0  0  0
   -2.0162   -3.6161    0.0000 Cl  0  0  0  0  0  0  0  0  0  0  0  0
    0.0001   -1.6001    0.0000 C   0  0  0  0  0  0  0  0  0  0  0  0
    1.2945   -2.5405    0.0000 C   0  0  0  0  0  0  0  0  0  0  0  0
    2.7562   -1.8897    0.0000 O   0  0  0  0  0  0  0  0  0  0  0  0
    1.1271   -4.1317    0.0000 O   0  0  0  0  0  0  0  0  0  0  0  0
    2.4215   -5.0722    0.0000 C   0  0  0  0  0  0  0  0  0  0  0  0
    3.7160   -6.0126    0.0000 H   0  0  0  0  0  0  0  0  0  0  0  0
    2.2543   -6.6634    0.0000 H   0  0  0  0  0  0  0  0  0  0  0  0
    3.8832   -4.4214    0.0000 H   0  0  0  0  0  0  0  0  0  0  0  0
    1.2945    0.9404    0.0000 S   0  0  0  0  0  0  0  0  0  0  0  0
    0.3540    2.2349    0.0000 O   0  0  0  0  0  0  0  0  0  0  0  0
    2.2349   -0.3540    0.0000 O   0  0  0  0  0  0  0  0  0  0  0  0
    2.5888    1.8809    0.0000 N   0  0  0  0  0  0  0  0  0  0  0  0
    4.0504    1.2301    0.0000 C   0  0  0  0  0  0  0  0  0  0  0  0
    4.2179   -0.3612    0.0000 O   0  0  0  0  0  0  0  0  0  0  0  0
    5.3449    2.1705    0.0000 N   0  0  0  0  0  0  0  0  0  0  0  0
    6.8065    1.5199    0.0000 C   0  0  0  0  0  0  0  0  0  0  0  0
    6.9740   -0.0715    0.0000 N   0  0  0  1  0  0  0  0  0  0  0  0
    8.4356   -0.7221    0.0000 C   0  0  0  0  0  0  0  0  0  0  0  0
    8.6028   -2.3135    0.0000 O   0  0  0  0  0  0  0  0  0  0  0  0
   10.0645   -2.9643    0.0000 C   0  0  0  0  0  0  0  0  0  0  0  0
   11.5262   -3.6149    0.0000 H   0  0  0  0  0  0  0  0  0  0  0  0
   10.2317   -4.5555    0.0000 H   0  0  0  0  0  0  0  0  0  0  0  0
    8.7701   -3.9047    0.0000 H   0  0  0  0  0  0  0  0  0  0  0  0
    9.7301    0.2183    0.0000 C   0  0  0  0  0  0  0  0  0  0  0  0
   11.1917   -0.4325    0.0000 H   0  0  0  0  0  0  0  0  0  0  0  0
    9.5626    1.8095    0.0000 C   0  0  0  0  0  0  0  0  0  0  0  0
   10.8571    2.7500    0.0000 O   0  0  0  0  0  0  0  0  0  0  0  0
   10.6899    4.3412    0.0000 C   0  0  0  0  0  0  0  0  0  0  0  0
   11.9843    5.2816    0.0000 H   0  0  0  0  0  0  0  0  0  0  0  0
   10.5227    5.9324    0.0000 H   0  0  0  0  0  0  0  0  0  0  0  0
    9.2282    4.9920    0.0000 H   0  0  0  0  0  0  0  0  0  0  0  0
    8.1010    2.4603    0.0000 N   0  0  0  1  0  0  0  0  0  0  0  0
    5.1777    3.7619    0.0000 H   0  0  0  0  0  0  0  0  0  0  0  0
    2.4215    3.4721    0.0000 H   0  0  0  0  0  0  0  0  0  0  0  0
  1  2  4  0  0  0  0
  2  3  1  0  0  0  0
  3  4  1  0  0  0  0
  3  5  1  0  0  0  0
  3  6  1  0  0  0  0
  2  7  4  0  0  0  0
  7  8  4  0  0  0  0
  8  9  1  0  0  0  0
  8 10  4  0  0  0  0
 10  1  4  0  0  0  0
 10 11  1  0  0  0  0
 11 12  2  0  0  0  0
 11 13  1  0  0  0  0
 13 14  1  0  0  0  0
 14 15  1  0  0  0  0
 14 16  1  0  0  0  0
 14 17  1  0  0  0  0
  1 18  1  0  0  0  0
 18 19  2  0  0  0  0
 18 20  2  0  0  0  0
 18 21  1  0  0  0  0
 21 22  1  0  0  0  0
 22 23  2  0  0  0  0
 22 24  1  0  0  0  0
 24 25  1  0  0  0  0
 25 26  4  0  0  0  0
 26 27  4  0  0  0  0
 27 28  1  0  0  0  0
 28 29  1  0  0  0  0
 29 30  1  0  0  0  0
 29 31  1  0  0  0  0
 29 32  1  0  0  0  0
 27 33  4  0  0  0  0
 33 34  1  0  0  0  0
 33 35  4  0  0  0  0
 35 36  1  0  0  0  0
 36 37  1  0  0  0  0
 37 38  1  0  0  0  0
 37 39  1  0  0  0  0
 37 40  1  0  0  0  0
 35 41  4  0  0  0  0
 41 25  4  0  0  0  0
 24 42  1  0  0  0  0
 21 43  1  0  0  0  0
M  END
> <CAS>
100784-20-1

> <NAME>
HALOSULFURON-METHYL

> <preferred_name>
Halosulfuron-methyl

> <iupac>
methyl 3-chloro-5-{[(4,6-dimethoxypyrimidin-2-yl)carbamoyl]sulfamoyl}-1-methyl-1H-pyrazole-4-carboxylate

> <SMILES>
C[n]1[n]c(Cl)c(c1S(=O)(=O)NC(=O)Nc1[n]c(cc([n]1)OC)OC)C(=O)OC

> <Canonical_QSARr>
C[n]1[n]c(Cl)c(c1S(=O)(=O)NC(=O)Nc1[n]c(cc([n]1)OC)OC)C(=O)OC

> <InChI_Code_QSARr>
InChI=1S/C13H15ClN6O7S/c1-20-10(8(9(14)18-20)11(21)27-4)28(23,24)19-13(22)17-12-15-6(25-2)5-7(16-12)26-3/h5H,1-4H3,(H2,15,16,17,19,22)

> <InChI Key_QSARr>
FMGZEUWROYGLAY-UHFFFAOYSA-N

> <Salt_Solvent>
?

> <WS Temperature>
20

> <WS Reference>
TOMLIN,C (1997); pH 5

> <dsstox_substance_id>
DTXSID9034650

> <LogMolar>
-4.4642

$$$$
101007-06-1
  -INDIGO-01081615412D

 59 61  0  0  0  0  0  0  0  0999 V2000
   -1.3858   -0.7999    0.0000 C   0  0  0  0  0  0  0  0  0  0  0  0
   -2.8891   -1.3473    0.0000 C   0  0  0  0  0  0  0  0  0  0  0  0
   -4.1147   -0.3187    0.0000 O   0  0  0  0  0  0  0  0  0  0  0  0
   -5.6183   -0.8661    0.0000 C   0  0  0  0  0  0  0  0  0  0  0  0
   -7.1219   -1.4132    0.0000 C   0  0  0  0  0  0  0  0  0  0  0  0
   -8.3475   -0.3848    0.0000 C   0  0  0  0  0  0  0  0  0  0  0  0
   -8.0698    1.1910    0.0000 H   0  0  0  0  0  0  0  0  0  0  0  0
   -9.8511   -0.9320    0.0000 C   0  0  0  0  0  0  0  0  0  0  0  0
  -11.0767    0.0965    0.0000 H   0  0  0  0  0  0  0  0  0  0  0  0
  -10.1288   -2.5078    0.0000 C   0  0  0  0  0  0  0  0  0  0  0  0
  -11.6325   -3.0549    0.0000 H   0  0  0  0  0  0  0  0  0  0  0  0
   -8.9032   -3.5362    0.0000 C   0  0  0  0  0  0  0  0  0  0  0  0
   -9.1809   -5.1118    0.0000 O   0  0  0  0  0  0  0  0  0  0  0  0
  -10.4065   -6.1402    0.0000 C   0  0  0  0  0  0  0  0  0  0  0  0
  -10.1288   -7.7160    0.0000 C   0  0  0  0  0  0  0  0  0  0  0  0
   -8.6252   -8.2632    0.0000 H   0  0  0  0  0  0  0  0  0  0  0  0
  -11.3544   -8.7445    0.0000 C   0  0  0  0  0  0  0  0  0  0  0  0
  -11.0767  -10.3201    0.0000 H   0  0  0  0  0  0  0  0  0  0  0  0
  -12.8581   -8.1973    0.0000 C   0  0  0  0  0  0  0  0  0  0  0  0
  -14.0837   -9.2257    0.0000 H   0  0  0  0  0  0  0  0  0  0  0  0
  -13.1358   -6.6215    0.0000 C   0  0  0  0  0  0  0  0  0  0  0  0
  -14.6394   -6.0743    0.0000 H   0  0  0  0  0  0  0  0  0  0  0  0
  -11.9102   -5.5931    0.0000 C   0  0  0  0  0  0  0  0  0  0  0  0
  -12.1882   -4.0175    0.0000 H   0  0  0  0  0  0  0  0  0  0  0  0
   -7.3996   -2.9888    0.0000 C   0  0  0  0  0  0  0  0  0  0  0  0
   -6.1740   -4.0175    0.0000 H   0  0  0  0  0  0  0  0  0  0  0  0
   -6.1655    0.6376    0.0000 C   0  0  0  0  0  0  0  0  0  0  0  0
   -6.7128    2.1410    0.0000 N   0  0  0  0  0  0  0  0  0  0  0  0
   -5.0711   -2.3695    0.0000 H   0  0  0  0  0  0  0  0  0  0  0  0
   -2.6114   -2.9229    0.0000 O   0  0  0  0  0  0  0  0  0  0  0  0
   -0.0001   -1.6001    0.0000 C   0  0  0  0  0  0  0  0  0  0  0  0
   -0.0001   -3.2000    0.0000 C   0  0  0  0  0  0  0  0  0  0  0  0
    1.3856   -3.9999    0.0000 C   0  0  0  0  0  0  0  0  0  0  0  0
    1.3856   -5.6000    0.0000 C   0  0  0  0  0  0  0  0  0  0  0  0
    2.7713   -6.3999    0.0000 O   0  0  0  0  0  0  0  0  0  0  0  0
    2.7713   -8.0000    0.0000 C   0  0  0  0  0  0  0  0  0  0  0  0
    2.7713   -9.5999    0.0000 C   0  0  0  0  0  0  0  0  0  0  0  0
    2.7713  -11.2000    0.0000 F   0  0  0  0  0  0  0  0  0  0  0  0
    4.1569  -10.4001    0.0000 F   0  0  0  0  0  0  0  0  0  0  0  0
    1.3856  -10.4001    0.0000 F   0  0  0  0  0  0  0  0  0  0  0  0
    4.3714   -8.0000    0.0000 C   0  0  0  0  0  0  0  0  0  0  0  0
    5.9713   -8.0000    0.0000 F   0  0  0  0  0  0  0  0  0  0  0  0
    5.1712   -6.6143    0.0000 F   0  0  0  0  0  0  0  0  0  0  0  0
    5.1712   -9.3857    0.0000 F   0  0  0  0  0  0  0  0  0  0  0  0
    1.1714   -8.0000    0.0000 H   0  0  0  0  0  0  0  0  0  0  0  0
   -0.0001   -6.3999    0.0000 O   0  0  0  0  0  0  0  0  0  0  0  0
    2.7713   -3.2000    0.0000 H   0  0  0  0  0  0  0  0  0  0  0  0
   -1.3858   -3.9999    0.0000 H   0  0  0  0  0  0  0  0  0  0  0  0
    1.5755   -1.8778    0.0000 H   0  0  0  0  0  0  0  0  0  0  0  0
   -0.0001   -0.0000    0.0000 C   0  0  0  0  0  0  0  0  0  0  0  0
    1.5755    0.2779    0.0000 C   0  0  0  0  0  0  0  0  0  0  0  0
    3.1515    0.5556    0.0000 H   0  0  0  0  0  0  0  0  0  0  0  0
    2.1231    1.7813    0.0000 H   0  0  0  0  0  0  0  0  0  0  0  0
    2.6043   -0.9478    0.0000 H   0  0  0  0  0  0  0  0  0  0  0  0
   -0.5473    1.5036    0.0000 C   0  0  0  0  0  0  0  0  0  0  0  0
   -1.0946    3.0070    0.0000 H   0  0  0  0  0  0  0  0  0  0  0  0
    0.4811    2.7291    0.0000 H   0  0  0  0  0  0  0  0  0  0  0  0
   -2.1230    1.7813    0.0000 H   0  0  0  0  0  0  0  0  0  0  0  0
   -2.4142    0.4258    0.0000 H   0  0  0  0  0  0  0  0  0  0  0  0
  1  2  1  0  0  0  0
  2  3  1  0  0  0  0
  3  4  1  0  0  0  0
  4  5  1  0  0  0  0
  5  6  4  0  0  0  0
  6  7  1  0  0  0  0
  6  8  4  0  0  0  0
  8  9  1  0  0  0  0
  8 10  4  0  0  0  0
 10 11  1  0  0  0  0
 10 12  4  0  0  0  0
 12 13  1  0  0  0  0
 13 14  1  0  0  0  0
 14 15  4  0  0  0  0
 15 16  1  0  0  0  0
 15 17  4  0  0  0  0
 17 18  1  0  0  0  0
 17 19  4  0  0  0  0
 19 20  1  0  0  0  0
 19 21  4  0  0  0  0
 21 22  1  0  0  0  0
 21 23  4  0  0  0  0
 23 14  4  0  0  0  0
 23 24  1  0  0  0  0
 12 25  4  0  0  0  0
 25  5  4  0  0  0  0
 25 26  1  0  0  0  0
  4 27  1  0  0  0  0
 27 28  3  0  0  0  0
  4 29  1  0  0  0  0
  2 30  2  0  0  0  0
  1 31  1  0  0  0  0
 31 32  1  0  0  0  0
 32 33  2  0  0  0  0
 33 34  1  0  0  0  0
 34 35  1  0  0  0  0
 35 36  1  0  0  0  0
 36 37  1  0  0  0  0
 37 38  1  0  0  0  0
 37 39  1  0  0  0  0
 37 40  1  0  0  0  0
 36 41  1  0  0  0  0
 41 42  1  0  0  0  0
 41 43  1  0  0  0  0
 41 44  1  0  0  0  0
 36 45  1  0  0  0  0
 34 46  2  0  0  0  0
 33 47  1  0  0  0  0
 32 48  1  0  0  0  0
 31 49  1  0  0  0  0
 31 50  1  0  0  0  0
 50  1  1  0  0  0  0
 50 51  1  0  0  0  0
 51 52  1  0  0  0  0
 51 53  1  0  0  0  0
 51 54  1  0  0  0  0
 50 55  1  0  0  0  0
 55 56  1  0  0  0  0
 55 57  1  0  0  0  0
 55 58  1  0  0  0  0
  1 59  1  0  0  0  0
M  END
> <CAS>
101007-06-1

> <NAME>
ACRINATHRIN

> <preferred_name>
Acrinathrin

> <iupac>
(S)-cyano(3-phenoxyphenyl)methyl (1R,3S)-3-{(1Z)-3-[(1,1,1,3,3,3-hexafluoropropan-2-yl)oxy]-3-oxoprop-1-en-1-yl}-2,2-dimethylcyclopropanecarboxylate

> <SMILES>
CC1(C)[C@@H]([C@@H]1/C=C\C(=O)OC(C(F)(F)F)C(F)(F)F)C(=O)O[C@H](C#N)c1cc(ccc1)Oc1ccccc1

> <Canonical_QSARr>
CC1(C)C(C1C=CC(=O)OC(C(F)(F)F)C(F)(F)F)C(=O)OC(C#N)c1cc(ccc1)Oc1ccccc1

> <InChI_Code_QSARr>
InChI=1S/C26H21F6NO5/c1-24(2)18(11-12-20(34)38-23(25(27,28)29)26(30,31)32)21(24)22(35)37-19(14-33)15-7-6-10-17(13-15)36-16-8-4-3-5-9-16/h3-13,18-19,21,23H,1-2H3/b12-11+

> <InChI Key_QSARr>
YLFSVIMMRPNPFK-VAWYXSNFSA-N

> <Salt_Solvent>
?

> <WS Temperature>
25

> <WS Reference>
TOMLIN,C (1997)

> <dsstox_substance_id>
DTXSID3041584

> <LogMolar>
-7.4325

$$$$
101463-69-8
  -INDIGO-01081615412D

 44 46  0  0  0  0  0  0  0  0999 V2000
   14.4996    2.4001    0.0000 C   0  0  0  0  0  0  0  0  0  0  0  0
   13.1139    3.1999    0.0000 N   0  0  0  0  0  0  0  0  0  0  0  0
   11.7283    2.4001    0.0000 C   0  0  0  0  0  0  0  0  0  0  0  0
   10.3427    3.2001    0.0000 N   0  0  0  0  0  0  0  0  0  0  0  0
    8.9571    2.4001    0.0000 C   0  0  0  0  0  0  0  0  0  0  0  0
    8.9571    0.8000    0.0000 C   0  0  0  0  0  0  0  0  0  0  0  0
   10.3427    0.0000    0.0000 H   0  0  0  0  0  0  0  0  0  0  0  0
    7.5711    0.0000    0.0000 C   0  0  0  0  0  0  0  0  0  0  0  0
    7.5711   -1.6000    0.0000 H   0  0  0  0  0  0  0  0  0  0  0  0
    6.1855    0.8000    0.0000 C   0  0  0  0  0  0  0  0  0  0  0  0
    4.7999    0.0000    0.0000 O   0  0  0  0  0  0  0  0  0  0  0  0
    3.2000    0.0000    0.0000 C   0  0  0  0  0  0  0  0  0  0  0  0
    2.3999    1.3857    0.0000 C   0  0  0  0  0  0  0  0  0  0  0  0
    3.2000    2.7713    0.0000 H   0  0  0  0  0  0  0  0  0  0  0  0
    0.8001    1.3857    0.0000 C   0  0  0  0  0  0  0  0  0  0  0  0
    0.0000    2.7713    0.0000 H   0  0  0  0  0  0  0  0  0  0  0  0
    0.0000    0.0000    0.0000 C   0  0  0  0  0  0  0  0  0  0  0  0
   -1.6002    0.0000    0.0000 C   0  0  0  0  0  0  0  0  0  0  0  0
   -3.2000    0.0000    0.0000 F   0  0  0  0  0  0  0  0  0  0  0  0
   -2.3999    1.3857    0.0000 F   0  0  0  0  0  0  0  0  0  0  0  0
   -2.3999   -1.3856    0.0000 F   0  0  0  0  0  0  0  0  0  0  0  0
    0.8001   -1.3856    0.0000 C   0  0  0  0  0  0  0  0  0  0  0  0
    0.0000   -2.7713    0.0000 H   0  0  0  0  0  0  0  0  0  0  0  0
    2.3999   -1.3856    0.0000 C   0  0  0  0  0  0  0  0  0  0  0  0
    3.2000   -2.7713    0.0000 Cl  0  0  0  0  0  0  0  0  0  0  0  0
    6.1855    2.4001    0.0000 C   0  0  0  0  0  0  0  0  0  0  0  0
    4.7999    3.2001    0.0000 H   0  0  0  0  0  0  0  0  0  0  0  0
    7.5715    3.2001    0.0000 C   0  0  0  0  0  0  0  0  0  0  0  0
    7.5715    4.8000    0.0000 F   0  0  0  0  0  0  0  0  0  0  0  0
   10.3427    4.8000    0.0000 H   0  0  0  0  0  0  0  0  0  0  0  0
   11.7283    0.8000    0.0000 O   0  0  0  0  0  0  0  0  0  0  0  0
   13.1139    4.8000    0.0000 H   0  0  0  0  0  0  0  0  0  0  0  0
   15.8852    3.2001    0.0000 C   0  0  0  0  0  0  0  0  0  0  0  0
   15.8852    4.8000    0.0000 C   0  0  0  0  0  0  0  0  0  0  0  0
   14.4996    5.6000    0.0000 F   0  0  0  0  0  0  0  0  0  0  0  0
   17.2708    5.6000    0.0000 C   0  0  0  0  0  0  0  0  0  0  0  0
   17.2708    7.2000    0.0000 H   0  0  0  0  0  0  0  0  0  0  0  0
   18.6564    4.8000    0.0000 C   0  0  0  0  0  0  0  0  0  0  0  0
   20.0420    5.6000    0.0000 H   0  0  0  0  0  0  0  0  0  0  0  0
   18.6564    3.2001    0.0000 C   0  0  0  0  0  0  0  0  0  0  0  0
   20.0420    2.4001    0.0000 H   0  0  0  0  0  0  0  0  0  0  0  0
   17.2708    2.4001    0.0000 C   0  0  0  0  0  0  0  0  0  0  0  0
   17.2708    0.8000    0.0000 F   0  0  0  0  0  0  0  0  0  0  0  0
   14.4996    0.8000    0.0000 O   0  0  0  0  0  0  0  0  0  0  0  0
  1  2  1  0  0  0  0
  2  3  1  0  0  0  0
  3  4  1  0  0  0  0
  4  5  1  0  0  0  0
  5  6  4  0  0  0  0
  6  7  1  0  0  0  0
  6  8  4  0  0  0  0
  8  9  1  0  0  0  0
  8 10  4  0  0  0  0
 10 11  1  0  0  0  0
 11 12  1  0  0  0  0
 12 13  4  0  0  0  0
 13 14  1  0  0  0  0
 13 15  4  0  0  0  0
 15 16  1  0  0  0  0
 15 17  4  0  0  0  0
 17 18  1  0  0  0  0
 18 19  1  0  0  0  0
 18 20  1  0  0  0  0
 18 21  1  0  0  0  0
 17 22  4  0  0  0  0
 22 23  1  0  0  0  0
 22 24  4  0  0  0  0
 24 12  4  0  0  0  0
 24 25  1  0  0  0  0
 10 26  4  0  0  0  0
 26 27  1  0  0  0  0
 26 28  4  0  0  0  0
 28  5  4  0  0  0  0
 28 29  1  0  0  0  0
  4 30  1  0  0  0  0
  3 31  2  0  0  0  0
  2 32  1  0  0  0  0
  1 33  1  0  0  0  0
 33 34  4  0  0  0  0
 34 35  1  0  0  0  0
 34 36  4  0  0  0  0
 36 37  1  0  0  0  0
 36 38  4  0  0  0  0
 38 39  1  0  0  0  0
 38 40  4  0  0  0  0
 40 41  1  0  0  0  0
 40 42  4  0  0  0  0
 42 33  4  0  0  0  0
 42 43  1  0  0  0  0
  1 44  2  0  0  0  0
M  END
> <CAS>
101463-69-8

> <NAME>
Flufenoxuron

> <preferred_name>
Flufenoxuron

> <iupac>
N-({4-[2-chloro-4-(trifluoromethyl)phenoxy]-2-fluorophenyl}carbamoyl)-2,6-difluorobenzamide

> <SMILES>
O=C(Nc1ccc(cc1F)Oc1ccc(cc1Cl)C(F)(F)F)NC(=O)c1c(F)cccc1F

> <Canonical_QSARr>
O=C(Nc1ccc(cc1F)Oc1ccc(cc1Cl)C(F)(F)F)NC(=O)c1c(F)cccc1F

> <InChI_Code_QSARr>
InChI=1S/C21H11ClF6N2O3/c22-12-8-10(21(26,27)28)4-7-17(12)33-11-5-6-16(15(25)9-11)29-20(32)30-19(31)18-13(23)2-1-3-14(18)24/h1-9H,(H2,29,30,31,32)

> <InChI Key_QSARr>
RYLHNOVXKPXDIP-UHFFFAOYSA-N

> <Salt_Solvent>
?

> <WS Temperature>
25

> <WS Reference>
TOMLIN,C (2003)

> <dsstox_substance_id>
DTXSID1041978

> <LogMolar>
-8.5073

$$$$
101903-30-4
  -INDIGO-01081615412D

 48 49  0  0  0  0  0  0  0  0999 V2000
    9.0329    1.7680    0.0000 C   0  0  0  0  0  0  0  0  0  0  0  0
    7.7385    0.8276    0.0000 C   0  0  0  0  0  0  0  0  0  0  0  0
    6.2768    1.4783    0.0000 C   0  0  0  0  0  0  0  0  0  0  0  0
    4.8152    2.1291    0.0000 C   0  0  0  0  0  0  0  0  0  0  0  0
    3.3535    2.7799    0.0000 C   0  0  0  0  0  0  0  0  0  0  0  0
    2.7027    1.3181    0.0000 O   0  0  0  0  0  0  0  0  0  0  0  0
    1.1113    1.1510    0.0000 C   0  0  0  0  0  0  0  0  0  0  0  0
    0.1709    2.4454    0.0000 O   0  0  0  0  0  0  0  0  0  0  0  0
    0.0000    0.0000    0.0000 C   0  0  0  0  0  0  0  0  0  0  0  0
   -1.4616    0.6508    0.0000 N   0  0  0  0  0  0  0  0  0  0  0  0
   -1.6289    2.2420    0.0000 C   0  0  0  0  0  0  0  0  0  0  0  0
   -0.5176    3.3930    0.0000 O   0  0  0  0  0  0  0  0  0  0  0  0
   -2.9554    3.1368    0.0000 N   0  0  0  1  0  0  0  0  0  0  0  0
   -4.4588    2.5896    0.0000 C   0  0  0  0  0  0  0  0  0  0  0  0
   -4.9000    1.0515    0.0000 H   0  0  0  0  0  0  0  0  0  0  0  0
   -5.4440    3.8503    0.0000 N   0  0  0  1  0  0  0  0  0  0  0  0
   -4.5494    5.1768    0.0000 C   0  0  0  0  0  0  0  0  0  0  0  0
   -5.0965    6.6803    0.0000 H   0  0  0  0  0  0  0  0  0  0  0  0
   -3.0113    4.7357    0.0000 C   0  0  0  0  0  0  0  0  0  0  0  0
   -1.7504    5.7208    0.0000 H   0  0  0  0  0  0  0  0  0  0  0  0
   -2.7561   -0.2896    0.0000 C   0  0  0  0  0  0  0  0  0  0  0  0
   -4.0505   -1.2301    0.0000 C   0  0  0  0  0  0  0  0  0  0  0  0
   -5.5721   -0.7357    0.0000 O   0  0  0  0  0  0  0  0  0  0  0  0
   -6.5127   -2.0302    0.0000 C   0  0  0  0  0  0  0  0  0  0  0  0
   -8.1127   -2.0302    0.0000 H   0  0  0  0  0  0  0  0  0  0  0  0
   -5.5721   -3.3245    0.0000 C   0  0  0  0  0  0  0  0  0  0  0  0
   -6.0667   -4.8463    0.0000 H   0  0  0  0  0  0  0  0  0  0  0  0
   -4.0505   -2.8301    0.0000 C   0  0  0  0  0  0  0  0  0  0  0  0
   -2.7561   -3.7705    0.0000 H   0  0  0  0  0  0  0  0  0  0  0  0
   -3.6964    1.0047    0.0000 H   0  0  0  0  0  0  0  0  0  0  0  0
   -2.0548   -1.7277    0.0000 H   0  0  0  0  0  0  0  0  0  0  0  0
    1.1511   -1.1115    0.0000 C   0  0  0  0  0  0  0  0  0  0  0  0
    2.3018   -2.2229    0.0000 C   0  0  0  0  0  0  0  0  0  0  0  0
    3.4529   -3.3344    0.0000 H   0  0  0  0  0  0  0  0  0  0  0  0
    3.8399   -1.7818    0.0000 H   0  0  0  0  0  0  0  0  0  0  0  0
    1.9148   -3.7753    0.0000 H   0  0  0  0  0  0  0  0  0  0  0  0
    2.2624    0.0394    0.0000 H   0  0  0  0  0  0  0  0  0  0  0  0
    0.0395   -2.2623    0.0000 H   0  0  0  0  0  0  0  0  0  0  0  0
   -1.1116   -1.1509    0.0000 H   0  0  0  0  0  0  0  0  0  0  0  0
    4.0043    4.2415    0.0000 H   0  0  0  0  0  0  0  0  0  0  0  0
    1.8918    3.4307    0.0000 H   0  0  0  0  0  0  0  0  0  0  0  0
    5.4659    3.5907    0.0000 H   0  0  0  0  0  0  0  0  0  0  0  0
    4.1644    0.6673    0.0000 H   0  0  0  0  0  0  0  0  0  0  0  0
    6.9276    2.9399    0.0000 H   0  0  0  0  0  0  0  0  0  0  0  0
    5.6261    0.0166    0.0000 H   0  0  0  0  0  0  0  0  0  0  0  0
    7.9057   -0.7636    0.0000 H   0  0  0  0  0  0  0  0  0  0  0  0
   10.4946    1.1173    0.0000 H   0  0  0  0  0  0  0  0  0  0  0  0
    8.8657    3.3592    0.0000 H   0  0  0  0  0  0  0  0  0  0  0  0
  1  2  2  0  0  0  0
  2  3  1  0  0  0  0
  3  4  1  0  0  0  0
  4  5  1  0  0  0  0
  5  6  1  0  0  0  0
  6  7  1  0  0  0  0
  7  8  2  0  0  0  0
  7  9  1  0  0  0  0
  9 10  1  0  0  0  0
 10 11  1  0  0  0  0
 11 12  2  0  0  0  0
 11 13  1  0  0  0  0
 13 14  4  0  0  0  0
 14 15  1  0  0  0  0
 14 16  4  0  0  0  0
 16 17  4  0  0  0  0
 17 18  1  0  0  0  0
 17 19  4  0  0  0  0
 19 13  4  0  0  0  0
 19 20  1  0  0  0  0
 10 21  1  0  0  0  0
 21 22  1  0  0  0  0
 22 23  4  0  0  0  0
 23 24  4  0  0  0  0
 24 25  1  0  0  0  0
 24 26  4  0  0  0  0
 26 27  1  0  0  0  0
 26 28  4  0  0  0  0
 28 22  4  0  0  0  0
 28 29  1  0  0  0  0
 21 30  1  0  0  0  0
 21 31  1  0  0  0  0
  9 32  1  0  0  0  0
 32 33  1  0  0  0  0
 33 34  1  0  0  0  0
 33 35  1  0  0  0  0
 33 36  1  0  0  0  0
 32 37  1  0  0  0  0
 32 38  1  0  0  0  0
  9 39  1  0  0  0  0
  5 40  1  0  0  0  0
  5 41  1  0  0  0  0
  4 42  1  0  0  0  0
  4 43  1  0  0  0  0
  3 44  1  0  0  0  0
  3 45  1  0  0  0  0
  2 46  1  0  0  0  0
  1 47  1  0  0  0  0
  1 48  1  0  0  0  0
M  END
> <CAS>
101903-30-4

> <NAME>
Pefurazoate

> <preferred_name>
Pefurazoate

> <iupac>
pent-4-en-1-yl 2-[(2-furylmethyl)(1H-imidazol-1-ylcarbonyl)amino]butanoate

> <SMILES>
CCC(C(=O)OCCCC=C)N(Cc1ccco1)C(=O)[n]1c[n]cc1

> <Canonical_QSARr>
CCC(C(=O)OCCCC=C)N(Cc1ccco1)C(=O)[n]1c[n]cc1

> <InChI_Code_QSARr>
InChI=1S/C18H23N3O4/c1-3-5-6-11-25-17(22)16(4-2)21(13-15-8-7-12-24-15)18(23)20-10-9-19-14-20/h3,7-10,12,14,16H,1,4-6,11,13H2,2H3

> <InChI Key_QSARr>
WBTYBAGIHOISOQ-UHFFFAOYSA-N

> <Salt_Solvent>
?

> <WS Temperature>
25

> <WS Reference>
TOMLIN,C (1994)

> <dsstox_substance_id>
DTXSID4057920

> <LogMolar>
-2.8919

$$$$
102943-71-5
  -INDIGO-01081615412D

 27 28  0  0  0  0  0  0  0  0999 V2000
    2.7713    1.6000    0.0000 C   0  0  0  0  0  0  0  0  0  0  0  0
    1.3856    2.4000    0.0000 N   0  0  0  1  0  0  0  0  0  0  0  0
   -0.0000    1.6000    0.0000 C   0  0  0  0  0  0  0  0  0  0  0  0
   -1.0285    2.8257    0.0000 C   0  0  0  0  0  0  0  0  0  0  0  0
   -2.0569    4.0513    0.0000 C   0  0  0  0  0  0  0  0  0  0  0  0
   -3.0853    5.2770    0.0000 H   0  0  0  0  0  0  0  0  0  0  0  0
   -3.6327    3.7736    0.0000 H   0  0  0  0  0  0  0  0  0  0  0  0
   -1.5097    5.5548    0.0000 H   0  0  0  0  0  0  0  0  0  0  0  0
   -2.2542    1.7972    0.0000 H   0  0  0  0  0  0  0  0  0  0  0  0
    0.1973    3.8542    0.0000 H   0  0  0  0  0  0  0  0  0  0  0  0
   -0.0000    0.0000    0.0000 C   0  0  0  0  0  0  0  0  0  0  0  0
   -1.2257   -1.0284    0.0000 C   0  0  0  0  0  0  0  0  0  0  0  0
   -2.4513   -2.0569    0.0000 C   0  0  0  0  0  0  0  0  0  0  0  0
   -3.6770   -3.0854    0.0000 H   0  0  0  0  0  0  0  0  0  0  0  0
   -2.1735   -3.6326    0.0000 H   0  0  0  0  0  0  0  0  0  0  0  0
   -3.9548   -1.5097    0.0000 H   0  0  0  0  0  0  0  0  0  0  0  0
   -0.1971   -2.2541    0.0000 H   0  0  0  0  0  0  0  0  0  0  0  0
   -2.2542    0.1971    0.0000 H   0  0  0  0  0  0  0  0  0  0  0  0
    1.3856   -0.8000    0.0000 N   0  0  0  1  0  0  0  0  0  0  0  0
    2.7713    0.0000    0.0000 C   0  0  0  0  0  0  0  0  0  0  0  0
    4.1569   -0.8000    0.0000 C   0  0  0  0  0  0  0  0  0  0  0  0
    4.1569   -2.4000    0.0000 O   0  0  0  0  0  0  0  0  0  0  0  0
    5.5426   -3.2000    0.0000 H   0  0  0  0  0  0  0  0  0  0  0  0
    5.5426    0.0000    0.0000 N   0  0  0  1  0  0  0  0  0  0  0  0
    5.5426    1.6000    0.0000 C   0  0  0  0  0  0  0  0  0  0  0  0
    6.9282    2.4000    0.0000 H   0  0  0  0  0  0  0  0  0  0  0  0
    4.1569    2.4000    0.0000 N   0  0  0  1  0  0  0  0  0  0  0  0
  1  2  4  0  0  0  0
  2  3  4  0  0  0  0
  3  4  1  0  0  0  0
  4  5  1  0  0  0  0
  5  6  1  0  0  0  0
  5  7  1  0  0  0  0
  5  8  1  0  0  0  0
  4  9  1  0  0  0  0
  4 10  1  0  0  0  0
  3 11  4  0  0  0  0
 11 12  1  0  0  0  0
 12 13  1  0  0  0  0
 13 14  1  0  0  0  0
 13 15  1  0  0  0  0
 13 16  1  0  0  0  0
 12 17  1  0  0  0  0
 12 18  1  0  0  0  0
 11 19  4  0  0  0  0
 19 20  4  0  0  0  0
 20  1  4  0  0  0  0
 20 21  4  0  0  0  0
 21 22  1  0  0  0  0
 22 23  1  0  0  0  0
 21 24  4  0  0  0  0
 24 25  4  0  0  0  0
 25 26  1  0  0  0  0
 25 27  4  0  0  0  0
 27  1  4  0  0  0  0
M  END
> <CAS>
102943-71-5

> <NAME>
4-Pteridinol, 6,7-diethyl-

> <preferred_name>


> <iupac>


> <SMILES>
CCc1[n]c2c(O)[n]c[n]c2[n]c1CC

> <Canonical_QSARr>
CCc1[n]c2c(O)[n]c[n]c2[n]c1CC

> <InChI_Code_QSARr>
InChI=1S/C10H12N4O/c1-3-6-7(4-2)14-9-8(13-6)10(15)12-5-11-9/h5H,3-4H2,1-2H3,(H,11,12,14,15)

> <InChI Key_QSARr>
WIUUIGUJULBTKD-UHFFFAOYSA-N

> <Salt_Solvent>
?

> <WS Temperature>
20

> <WS Reference>
BEILSTEIN

> <dsstox_substance_id>


> <LogMolar>
-1.9122

$$$$
103951-40-2
  -INDIGO-01081615412D

 35 35  0  0  0  0  0  0  0  0999 V2000
   -8.3138    1.6000    0.0000 C   0  0  0  0  0  0  0  0  0  0  0  0
   -9.6994    0.8000    0.0000 C   0  0  0  0  0  0  0  0  0  0  0  0
  -11.0851    1.6000    0.0000 H   0  0  0  0  0  0  0  0  0  0  0  0
   -9.6994   -0.8000    0.0000 C   0  0  0  0  0  0  0  0  0  0  0  0
  -11.0851   -1.6001    0.0000 H   0  0  0  0  0  0  0  0  0  0  0  0
   -8.3138   -1.6001    0.0000 C   0  0  0  0  0  0  0  0  0  0  0  0
   -8.3138   -3.2000    0.0000 H   0  0  0  0  0  0  0  0  0  0  0  0
   -6.9281   -0.8000    0.0000 C   0  0  0  0  0  0  0  0  0  0  0  0
   -5.5426   -1.6001    0.0000 H   0  0  0  0  0  0  0  0  0  0  0  0
   -6.9281    0.8000    0.0000 C   0  0  0  0  0  0  0  0  0  0  0  0
   -5.5426    1.6000    0.0000 O   0  0  0  0  0  0  0  0  0  0  0  0
   -4.1568    0.8000    0.0000 C   0  0  0  0  0  0  0  0  0  0  0  0
   -2.7713    0.0000    0.0000 O   0  0  0  0  0  0  0  0  0  0  0  0
   -1.3855    0.8000    0.0000 C   0  0  0  0  0  0  0  0  0  0  0  0
   -1.3855    2.4000    0.0000 O   0  0  0  0  0  0  0  0  0  0  0  0
    0.0000    0.0000    0.0000 C   0  0  0  0  0  0  0  0  0  0  0  0
    1.3857   -0.8000    0.0000 C   0  0  0  0  0  0  0  0  0  0  0  0
    2.7713   -1.6001    0.0000 H   0  0  0  0  0  0  0  0  0  0  0  0
    2.7713    0.0000    0.0000 H   0  0  0  0  0  0  0  0  0  0  0  0
    1.3857   -2.4000    0.0000 H   0  0  0  0  0  0  0  0  0  0  0  0
    0.8001    1.3856    0.0000 C   0  0  0  0  0  0  0  0  0  0  0  0
    1.5999    2.7713    0.0000 H   0  0  0  0  0  0  0  0  0  0  0  0
    2.4000    1.3856    0.0000 H   0  0  0  0  0  0  0  0  0  0  0  0
    0.0000    2.7713    0.0000 H   0  0  0  0  0  0  0  0  0  0  0  0
   -0.8001   -1.3856    0.0000 C   0  0  0  0  0  0  0  0  0  0  0  0
   -1.5999   -2.7712    0.0000 H   0  0  0  0  0  0  0  0  0  0  0  0
    0.0000   -2.7712    0.0000 H   0  0  0  0  0  0  0  0  0  0  0  0
   -2.4000   -1.3856    0.0000 H   0  0  0  0  0  0  0  0  0  0  0  0
   -3.3570    2.1857    0.0000 H   0  0  0  0  0  0  0  0  0  0  0  0
   -4.9569   -0.5856    0.0000 H   0  0  0  0  0  0  0  0  0  0  0  0
   -8.3138    3.2000    0.0000 C   0  0  0  0  0  0  0  0  0  0  0  0
   -9.6994    4.0001    0.0000 N   0  0  0  0  0  0  0  0  0  0  0  0
   -9.6994    5.6000    0.0000 H   0  0  0  0  0  0  0  0  0  0  0  0
  -11.0851    3.2000    0.0000 H   0  0  0  0  0  0  0  0  0  0  0  0
   -6.9283    4.0001    0.0000 O   0  0  0  0  0  0  0  0  0  0  0  0
  1  2  4  0  0  0  0
  2  3  1  0  0  0  0
  2  4  4  0  0  0  0
  4  5  1  0  0  0  0
  4  6  4  0  0  0  0
  6  7  1  0  0  0  0
  6  8  4  0  0  0  0
  8  9  1  0  0  0  0
  8 10  4  0  0  0  0
 10  1  4  0  0  0  0
 10 11  1  0  0  0  0
 11 12  1  0  0  0  0
 12 13  1  0  0  0  0
 13 14  1  0  0  0  0
 14 15  2  0  0  0  0
 14 16  1  0  0  0  0
 16 17  1  0  0  0  0
 17 18  1  0  0  0  0
 17 19  1  0  0  0  0
 17 20  1  0  0  0  0
 16 21  1  0  0  0  0
 21 22  1  0  0  0  0
 21 23  1  0  0  0  0
 21 24  1  0  0  0  0
 16 25  1  0  0  0  0
 25 26  1  0  0  0  0
 25 27  1  0  0  0  0
 25 28  1  0  0  0  0
 12 29  1  0  0  0  0
 12 30  1  0  0  0  0
  1 31  1  0  0  0  0
 31 32  1  0  0  0  0
 32 33  1  0  0  0  0
 32 34  1  0  0  0  0
 31 35  2  0  0  0  0
M  END
> <CAS>
103951-40-2

> <NAME>
O-(Pivaloyloxymethyl)salicylamide

> <preferred_name>


> <iupac>


> <SMILES>
CC(C)(C)C(=O)OCOc1ccccc1C(N)=O

> <Canonical_QSARr>
CC(C)(C)C(=O)OCOc1ccccc1C(N)=O

> <InChI_Code_QSARr>
InChI=1S/C13H17NO4/c1-13(2,3)12(16)18-8-17-10-7-5-4-6-9(10)11(14)15/h4-7H,8H2,1-3H3,(H2,14,15)

> <InChI Key_QSARr>
WLYDAGOZAIONEL-UHFFFAOYSA-N

> <Salt_Solvent>
?

> <WS Temperature>
23

> <WS Reference>
BUNDGAARD,H ET AL. (1986)

> <dsstox_substance_id>


> <LogMolar>
-2.6148

$$$$
104315-56-2
  -INDIGO-01081615412D

 22 23  0  0  0  0  0  0  0  0999 V2000
    1.5217    2.0944    0.0000 O   0  0  0  0  0  0  0  0  0  0  0  0
    2.4621    0.8001    0.0000 C   0  0  0  0  0  0  0  0  0  0  0  0
    4.0622    0.8001    0.0000 C   0  0  0  0  0  0  0  0  0  0  0  0
    4.8622    2.1856    0.0000 O   0  0  0  0  0  0  0  0  0  0  0  0
    6.4621    2.1856    0.0000 H   0  0  0  0  0  0  0  0  0  0  0  0
    4.8622   -0.5856    0.0000 O   0  0  0  0  0  0  0  0  0  0  0  0
    1.5217   -0.4945    0.0000 C   0  0  0  0  0  0  0  0  0  0  0  0
    2.0162   -2.0161    0.0000 O   0  0  0  0  0  0  0  0  0  0  0  0
    3.5811   -2.3487    0.0000 C   0  0  0  0  0  0  0  0  0  0  0  0
    4.0755   -3.8705    0.0000 H   0  0  0  0  0  0  0  0  0  0  0  0
    5.1462   -2.6814    0.0000 H   0  0  0  0  0  0  0  0  0  0  0  0
    2.5106   -3.5378    0.0000 H   0  0  0  0  0  0  0  0  0  0  0  0
   -0.0000   -0.0000    0.0000 C   0  0  0  0  0  0  0  0  0  0  0  0
   -1.3856   -0.8000    0.0000 C   0  0  0  0  0  0  0  0  0  0  0  0
   -2.7713   -0.0000    0.0000 C   0  0  0  0  0  0  0  0  0  0  0  0
   -2.7713    1.6000    0.0000 C   0  0  0  0  0  0  0  0  0  0  0  0
   -1.3856    2.4000    0.0000 C   0  0  0  0  0  0  0  0  0  0  0  0
   -1.3856    4.0000    0.0000 H   0  0  0  0  0  0  0  0  0  0  0  0
   -0.0000    1.6000    0.0000 C   0  0  0  0  0  0  0  0  0  0  0  0
   -4.1569    2.4000    0.0000 H   0  0  0  0  0  0  0  0  0  0  0  0
   -4.1569   -0.8000    0.0000 H   0  0  0  0  0  0  0  0  0  0  0  0
   -1.3856   -2.4000    0.0000 H   0  0  0  0  0  0  0  0  0  0  0  0
  1  2  4  0  0  0  0
  2  3  1  0  0  0  0
  3  4  1  0  0  0  0
  4  5  1  0  0  0  0
  3  6  2  0  0  0  0
  2  7  4  0  0  0  0
  7  8  1  0  0  0  0
  8  9  1  0  0  0  0
  9 10  1  0  0  0  0
  9 11  1  0  0  0  0
  9 12  1  0  0  0  0
  7 13  4  0  0  0  0
 13 14  4  0  0  0  0
 14 15  4  0  0  0  0
 15 16  4  0  0  0  0
 16 17  4  0  0  0  0
 17 18  1  0  0  0  0
 17 19  4  0  0  0  0
 19  1  4  0  0  0  0
 19 13  4  0  0  0  0
 16 20  1  0  0  0  0
 15 21  1  0  0  0  0
 14 22  1  0  0  0  0
M  END
> <CAS>
104315-56-2

> <NAME>
2-Benzofurancarboxylic acid, 3-methoxy-

> <preferred_name>


> <iupac>


> <SMILES>
COc1c(oc2ccccc12)C(O)=O

> <Canonical_QSARr>
COc1c(oc2ccccc12)C(O)=O

> <InChI_Code_QSARr>
InChI=1S/C10H8O4/c1-13-8-6-4-2-3-5-7(6)14-9(8)10(11)12/h2-5H,1H3,(H,11,12)

> <InChI Key_QSARr>
MZOCFIBSONGMJF-UHFFFAOYSA-N

> <Salt_Solvent>
?

> <WS Temperature>
20

> <WS Reference>
BEILSTEIN

> <dsstox_substance_id>


> <LogMolar>
-2.8857

$$$$
105779-78-0
  -INDIGO-01081615412D

 54 55  0  0  0  0  0  0  0  0999 V2000
   15.2420   -0.7999    0.0000 C   0  0  0  0  0  0  0  0  0  0  0  0
   13.8566   -0.0001    0.0000 C   0  0  0  0  0  0  0  0  0  0  0  0
   12.4708    0.7999    0.0000 C   0  0  0  0  0  0  0  0  0  0  0  0
   12.4708    2.4000    0.0000 N   0  0  0  0  0  0  0  0  0  0  0  0
   11.0851    3.2000    0.0000 C   0  0  0  0  0  0  0  0  0  0  0  0
   11.0851    4.8000    0.0000 H   0  0  0  0  0  0  0  0  0  0  0  0
    9.6993    2.4000    0.0000 N   0  0  0  0  0  0  0  0  0  0  0  0
    8.3139    3.2000    0.0000 H   0  0  0  0  0  0  0  0  0  0  0  0
    9.6993    0.7999    0.0000 C   0  0  0  0  0  0  0  0  0  0  0  0
    8.3139   -0.0001    0.0000 N   0  0  0  0  0  0  0  0  0  0  0  0
    6.9282    0.7999    0.0000 C   0  0  0  0  0  0  0  0  0  0  0  0
    5.5425    1.5999    0.0000 C   0  0  0  0  0  0  0  0  0  0  0  0
    4.1571    2.4000    0.0000 O   0  0  0  0  0  0  0  0  0  0  0  0
    2.7713    1.5999    0.0000 C   0  0  0  0  0  0  0  0  0  0  0  0
    1.3856    2.4000    0.0000 C   0  0  0  0  0  0  0  0  0  0  0  0
    1.3856    4.0000    0.0000 C   0  0  0  0  0  0  0  0  0  0  0  0
    1.3856    5.6000    0.0000 H   0  0  0  0  0  0  0  0  0  0  0  0
    2.7713    4.8000    0.0000 H   0  0  0  0  0  0  0  0  0  0  0  0
   -0.0001    4.8000    0.0000 H   0  0  0  0  0  0  0  0  0  0  0  0
   -0.0001    1.5999    0.0000 C   0  0  0  0  0  0  0  0  0  0  0  0
   -1.3855    2.4000    0.0000 C   0  0  0  0  0  0  0  0  0  0  0  0
   -2.7713    3.2000    0.0000 H   0  0  0  0  0  0  0  0  0  0  0  0
   -1.3855    4.0000    0.0000 H   0  0  0  0  0  0  0  0  0  0  0  0
   -2.7713    1.5999    0.0000 H   0  0  0  0  0  0  0  0  0  0  0  0
   -0.0001   -0.0001    0.0000 C   0  0  0  0  0  0  0  0  0  0  0  0
   -1.3855   -0.7999    0.0000 C   0  0  0  0  0  0  0  0  0  0  0  0
   -2.7713   -1.5999    0.0000 C   0  0  0  0  0  0  0  0  0  0  0  0
   -4.1570   -2.3999    0.0000 O   0  0  0  0  0  0  0  0  0  0  0  0
   -4.1570   -4.0000    0.0000 C   0  0  0  0  0  0  0  0  0  0  0  0
   -4.1570   -5.6000    0.0000 C   0  0  0  0  0  0  0  0  0  0  0  0
   -4.1570   -7.2000    0.0000 H   0  0  0  0  0  0  0  0  0  0  0  0
   -5.5424   -6.4000    0.0000 H   0  0  0  0  0  0  0  0  0  0  0  0
   -2.7713   -6.4000    0.0000 H   0  0  0  0  0  0  0  0  0  0  0  0
   -5.7569   -4.0000    0.0000 H   0  0  0  0  0  0  0  0  0  0  0  0
   -2.5568   -4.0000    0.0000 H   0  0  0  0  0  0  0  0  0  0  0  0
   -1.9713   -2.9857    0.0000 H   0  0  0  0  0  0  0  0  0  0  0  0
   -3.5712   -0.2143    0.0000 H   0  0  0  0  0  0  0  0  0  0  0  0
   -0.5856   -2.1857    0.0000 H   0  0  0  0  0  0  0  0  0  0  0  0
   -2.1855    0.5857    0.0000 H   0  0  0  0  0  0  0  0  0  0  0  0
    1.3856   -0.7999    0.0000 C   0  0  0  0  0  0  0  0  0  0  0  0
    1.3856   -2.3999    0.0000 H   0  0  0  0  0  0  0  0  0  0  0  0
    2.7713   -0.0001    0.0000 C   0  0  0  0  0  0  0  0  0  0  0  0
    4.1571   -0.7999    0.0000 H   0  0  0  0  0  0  0  0  0  0  0  0
    6.3424    2.9857    0.0000 H   0  0  0  0  0  0  0  0  0  0  0  0
    4.7425    0.2144    0.0000 H   0  0  0  0  0  0  0  0  0  0  0  0
    7.7282    2.1857    0.0000 H   0  0  0  0  0  0  0  0  0  0  0  0
    6.1283   -0.5856    0.0000 H   0  0  0  0  0  0  0  0  0  0  0  0
   11.0851   -0.0001    0.0000 C   0  0  0  0  0  0  0  0  0  0  0  0
   11.0851   -1.5999    0.0000 Cl  0  0  0  0  0  0  0  0  0  0  0  0
   14.6565    1.3857    0.0000 H   0  0  0  0  0  0  0  0  0  0  0  0
   13.0563   -1.3857    0.0000 H   0  0  0  0  0  0  0  0  0  0  0  0
   16.6277   -1.5999    0.0000 H   0  0  0  0  0  0  0  0  0  0  0  0
   16.6277   -0.0001    0.0000 H   0  0  0  0  0  0  0  0  0  0  0  0
   15.2420   -2.3999    0.0000 H   0  0  0  0  0  0  0  0  0  0  0  0
  1  2  1  0  0  0  0
  2  3  1  0  0  0  0
  3  4  1  0  0  0  0
  4  5  2  0  0  0  0
  5  6  1  0  0  0  0
  5  7  1  0  0  0  0
  7  8  1  0  0  0  0
  7  9  1  0  0  0  0
  9 10  2  0  0  0  0
 10 11  1  0  0  0  0
 11 12  1  0  0  0  0
 12 13  1  0  0  0  0
 13 14  1  0  0  0  0
 14 15  4  0  0  0  0
 15 16  1  0  0  0  0
 16 17  1  0  0  0  0
 16 18  1  0  0  0  0
 16 19  1  0  0  0  0
 15 20  4  0  0  0  0
 20 21  1  0  0  0  0
 21 22  1  0  0  0  0
 21 23  1  0  0  0  0
 21 24  1  0  0  0  0
 20 25  4  0  0  0  0
 25 26  1  0  0  0  0
 26 27  1  0  0  0  0
 27 28  1  0  0  0  0
 28 29  1  0  0  0  0
 29 30  1  0  0  0  0
 30 31  1  0  0  0  0
 30 32  1  0  0  0  0
 30 33  1  0  0  0  0
 29 34  1  0  0  0  0
 29 35  1  0  0  0  0
 27 36  1  0  0  0  0
 27 37  1  0  0  0  0
 26 38  1  0  0  0  0
 26 39  1  0  0  0  0
 25 40  4  0  0  0  0
 40 41  1  0  0  0  0
 40 42  4  0  0  0  0
 42 14  4  0  0  0  0
 42 43  1  0  0  0  0
 12 44  1  0  0  0  0
 12 45  1  0  0  0  0
 11 46  1  0  0  0  0
 11 47  1  0  0  0  0
  9 48  1  0  0  0  0
 48  3  2  0  0  0  0
 48 49  1  0  0  0  0
  2 50  1  0  0  0  0
  2 51  1  0  0  0  0
  1 52  1  0  0  0  0
  1 53  1  0  0  0  0
  1 54  1  0  0  0  0
M  END
> <CAS>
105779-78-0

> <NAME>
PYRIMIDIFEN

> <preferred_name>
Pyrimidifen

> <iupac>
5-chloro-N-{2-[4-(2-ethoxyethyl)-2,3-dimethylphenoxy]ethyl}-6-ethylpyrimidin-4-amine

> <SMILES>
Cc1c(ccc(CCOCC)c1C)OCCN=C1NC=NC(CC)=C1Cl

> <Canonical_QSARr>
Cc1c(ccc(CCOCC)c1C)OCCN=C1NC=NC(CC)=C1Cl

> <InChI_Code_QSARr>
InChI=1S/C20H28ClN3O2/c1-5-17-19(21)20(24-13-23-17)22-10-12-26-18-8-7-16(9-11-25-6-2)14(3)15(18)4/h7-8,13H,5-6,9-12H2,1-4H3,(H,22,23,24)

> <InChI Key_QSARr>
ITKAIUGKVKDENI-UHFFFAOYSA-N

> <Salt_Solvent>
?

> <WS Temperature>
25

> <WS Reference>
TOMLIN,C (1997)

> <dsstox_substance_id>
DTXSID9057925

> <LogMolar>
-5.2409

$$$$
106231-50-9
  -INDIGO-01081615412D

 25 25  0  0  0  0  0  0  0  0999 V2000
    2.3999   -1.3856    0.0000 O   0  0  0  0  0  0  0  0  0  0  0  0
    1.6001    0.0000    0.0000 C   0  0  0  0  0  0  0  0  0  0  0  0
    0.0000    0.0000    0.0000 C   0  0  0  0  0  0  0  0  0  0  0  0
   -0.8000    1.3856    0.0000 C   0  0  0  0  0  0  0  0  0  0  0  0
    0.0000    2.7713    0.0000 H   0  0  0  0  0  0  0  0  0  0  0  0
   -2.4001    1.3856    0.0000 C   0  0  0  0  0  0  0  0  0  0  0  0
   -3.1999    2.7713    0.0000 H   0  0  0  0  0  0  0  0  0  0  0  0
   -3.1999    0.0000    0.0000 C   0  0  0  0  0  0  0  0  0  0  0  0
   -4.8000    0.0000    0.0000 H   0  0  0  0  0  0  0  0  0  0  0  0
   -2.4001   -1.3856    0.0000 C   0  0  0  0  0  0  0  0  0  0  0  0
   -3.1999   -2.7713    0.0000 H   0  0  0  0  0  0  0  0  0  0  0  0
   -0.8000   -1.3856    0.0000 C   0  0  0  0  0  0  0  0  0  0  0  0
    0.0000   -2.7713    0.0000 H   0  0  0  0  0  0  0  0  0  0  0  0
    2.3999    1.3856    0.0000 O   0  0  0  0  0  0  0  0  0  0  0  0
    4.0000   -1.3856    0.0000 C   0  0  0  0  0  0  0  0  0  0  0  0
    5.6000   -1.3856    0.0000 C   0  0  0  0  0  0  0  0  0  0  0  0
    6.4001   -2.7713    0.0000 N   0  0  0  0  0  0  0  0  0  0  0  0
    7.9999   -2.7713    0.0000 C   0  0  0  0  0  0  0  0  0  0  0  0
    9.6000   -2.7713    0.0000 H   0  0  0  0  0  0  0  0  0  0  0  0
    8.8000   -4.1569    0.0000 H   0  0  0  0  0  0  0  0  0  0  0  0
    8.8000   -1.3856    0.0000 H   0  0  0  0  0  0  0  0  0  0  0  0
    5.6000   -4.1569    0.0000 H   0  0  0  0  0  0  0  0  0  0  0  0
    6.4001    0.0000    0.0000 O   0  0  0  0  0  0  0  0  0  0  0  0
    4.0000   -2.9857    0.0000 H   0  0  0  0  0  0  0  0  0  0  0  0
    4.0000    0.2144    0.0000 H   0  0  0  0  0  0  0  0  0  0  0  0
  1  2  1  0  0  0  0
  2  3  1  0  0  0  0
  3  4  4  0  0  0  0
  4  5  1  0  0  0  0
  4  6  4  0  0  0  0
  6  7  1  0  0  0  0
  6  8  4  0  0  0  0
  8  9  1  0  0  0  0
  8 10  4  0  0  0  0
 10 11  1  0  0  0  0
 10 12  4  0  0  0  0
 12  3  4  0  0  0  0
 12 13  1  0  0  0  0
  2 14  2  0  0  0  0
  1 15  1  0  0  0  0
 15 16  1  0  0  0  0
 16 17  1  0  0  0  0
 17 18  1  0  0  0  0
 18 19  1  0  0  0  0
 18 20  1  0  0  0  0
 18 21  1  0  0  0  0
 17 22  1  0  0  0  0
 16 23  2  0  0  0  0
 15 24  1  0  0  0  0
 15 25  1  0  0  0  0
M  END
> <CAS>
106231-50-9

> <NAME>
ACETAMIDE, 2-(BENZOYLOXY)-N-METHYL-

> <preferred_name>
PUBCHEM_14033068

> <iupac>
C10H11NO3

> <SMILES>
CNC(=O)COC(=O)c1ccccc1

> <Canonical_QSARr>
CNC(=O)COC(=O)c1ccccc1

> <InChI_Code_QSARr>
InChI=1S/C10H11NO3/c1-11-9(12)7-14-10(13)8-5-3-2-4-6-8/h2-6H,7H2,1H3,(H,11,12)

> <InChI Key_QSARr>
ZWAHHEQQTJUTPW-UHFFFAOYSA-N

> <Salt_Solvent>
?

> <WS Temperature>
22

> <WS Reference>
NIELSEN,NM & BUNDGAARD,H (1988)

> <dsstox_substance_id>
DTXSID10554746

> <LogMolar>
-1.7178

$$$$
106231-54-3
  -INDIGO-01081615412D

 28 28  0  0  0  0  0  0  0  0999 V2000
   -4.1568   -0.8000    0.0000 O   0  0  0  0  0  0  0  0  0  0  0  0
   -5.5426    0.0000    0.0000 C   0  0  0  0  0  0  0  0  0  0  0  0
   -6.9281   -0.8000    0.0000 C   0  0  0  0  0  0  0  0  0  0  0  0
   -8.3138    0.0000    0.0000 C   0  0  0  0  0  0  0  0  0  0  0  0
   -8.3138    1.6000    0.0000 H   0  0  0  0  0  0  0  0  0  0  0  0
   -9.6994   -0.8000    0.0000 C   0  0  0  0  0  0  0  0  0  0  0  0
  -11.0851    0.0000    0.0000 H   0  0  0  0  0  0  0  0  0  0  0  0
   -9.6994   -2.4000    0.0000 C   0  0  0  0  0  0  0  0  0  0  0  0
  -11.0851   -3.2000    0.0000 H   0  0  0  0  0  0  0  0  0  0  0  0
   -8.3138   -3.2000    0.0000 C   0  0  0  0  0  0  0  0  0  0  0  0
   -8.3138   -4.8000    0.0000 H   0  0  0  0  0  0  0  0  0  0  0  0
   -6.9281   -2.4000    0.0000 C   0  0  0  0  0  0  0  0  0  0  0  0
   -5.5426   -3.2000    0.0000 H   0  0  0  0  0  0  0  0  0  0  0  0
   -5.5426    1.6000    0.0000 O   0  0  0  0  0  0  0  0  0  0  0  0
   -2.7713    0.0000    0.0000 C   0  0  0  0  0  0  0  0  0  0  0  0
   -1.3855    0.8000    0.0000 C   0  0  0  0  0  0  0  0  0  0  0  0
    0.0000    0.0000    0.0000 N   0  0  0  0  0  0  0  0  0  0  0  0
    1.3857    0.8000    0.0000 C   0  0  0  0  0  0  0  0  0  0  0  0
    2.7713    1.6000    0.0000 H   0  0  0  0  0  0  0  0  0  0  0  0
    2.7713    0.0000    0.0000 H   0  0  0  0  0  0  0  0  0  0  0  0
    1.3857    2.4000    0.0000 H   0  0  0  0  0  0  0  0  0  0  0  0
    0.0000   -1.6000    0.0000 C   0  0  0  0  0  0  0  0  0  0  0  0
    0.0000   -3.2000    0.0000 H   0  0  0  0  0  0  0  0  0  0  0  0
    1.3857   -2.4000    0.0000 H   0  0  0  0  0  0  0  0  0  0  0  0
   -1.3855   -2.4000    0.0000 H   0  0  0  0  0  0  0  0  0  0  0  0
   -1.3855    2.4000    0.0000 O   0  0  0  0  0  0  0  0  0  0  0  0
   -1.9712   -1.3856    0.0000 H   0  0  0  0  0  0  0  0  0  0  0  0
   -3.5714    1.3856    0.0000 H   0  0  0  0  0  0  0  0  0  0  0  0
  1  2  1  0  0  0  0
  2  3  1  0  0  0  0
  3  4  4  0  0  0  0
  4  5  1  0  0  0  0
  4  6  4  0  0  0  0
  6  7  1  0  0  0  0
  6  8  4  0  0  0  0
  8  9  1  0  0  0  0
  8 10  4  0  0  0  0
 10 11  1  0  0  0  0
 10 12  4  0  0  0  0
 12  3  4  0  0  0  0
 12 13  1  0  0  0  0
  2 14  2  0  0  0  0
  1 15  1  0  0  0  0
 15 16  1  0  0  0  0
 16 17  1  0  0  0  0
 17 18  1  0  0  0  0
 18 19  1  0  0  0  0
 18 20  1  0  0  0  0
 18 21  1  0  0  0  0
 17 22  1  0  0  0  0
 22 23  1  0  0  0  0
 22 24  1  0  0  0  0
 22 25  1  0  0  0  0
 16 26  2  0  0  0  0
 15 27  1  0  0  0  0
 15 28  1  0  0  0  0
M  END
> <CAS>
106231-54-3

> <NAME>
ACETAMIDE, 2-(BENZOYLOXY)-N,N-DIMETHYL-

> <preferred_name>
PUBCHEM_14033046

> <iupac>
C11H13NO3

> <SMILES>
CN(C)C(=O)COC(=O)c1ccccc1

> <Canonical_QSARr>
CN(C)C(=O)COC(=O)c1ccccc1

> <InChI_Code_QSARr>
InChI=1S/C11H13NO3/c1-12(2)10(13)8-15-11(14)9-6-4-3-5-7-9/h3-7H,8H2,1-2H3

> <InChI Key_QSARr>
WKIMLEWQZUKSJM-UHFFFAOYSA-N

> <Salt_Solvent>
?

> <WS Temperature>
22

> <WS Reference>
NIELSEN,NM & BUNDGAARD,H (1988)

> <dsstox_substance_id>
DTXSID30554743

> <LogMolar>
-1.372

$$$$
106231-58-7
  -INDIGO-01081615412D

 36 36  0  0  0  0  0  0  0  0999 V2000
   -1.3857    0.8000    0.0000 C   0  0  0  0  0  0  0  0  0  0  0  0
   -2.9857    0.8000    0.0000 C   0  0  0  0  0  0  0  0  0  0  0  0
   -4.5856    0.8000    0.0000 O   0  0  0  0  0  0  0  0  0  0  0  0
   -5.3857    2.1857    0.0000 C   0  0  0  0  0  0  0  0  0  0  0  0
   -6.9857    2.1857    0.0000 C   0  0  0  0  0  0  0  0  0  0  0  0
   -7.7856    3.5712    0.0000 C   0  0  0  0  0  0  0  0  0  0  0  0
   -6.9857    4.9569    0.0000 H   0  0  0  0  0  0  0  0  0  0  0  0
   -9.3856    3.5712    0.0000 C   0  0  0  0  0  0  0  0  0  0  0  0
  -10.1857    4.9569    0.0000 H   0  0  0  0  0  0  0  0  0  0  0  0
  -10.1857    2.1857    0.0000 C   0  0  0  0  0  0  0  0  0  0  0  0
  -11.7856    2.1857    0.0000 H   0  0  0  0  0  0  0  0  0  0  0  0
   -9.3856    0.8000    0.0000 C   0  0  0  0  0  0  0  0  0  0  0  0
  -10.1857   -0.5856    0.0000 H   0  0  0  0  0  0  0  0  0  0  0  0
   -7.7856    0.8000    0.0000 C   0  0  0  0  0  0  0  0  0  0  0  0
   -6.9857   -0.5856    0.0000 H   0  0  0  0  0  0  0  0  0  0  0  0
   -4.5856    3.5712    0.0000 O   0  0  0  0  0  0  0  0  0  0  0  0
   -2.9857   -0.8001    0.0000 H   0  0  0  0  0  0  0  0  0  0  0  0
   -2.9857    2.4000    0.0000 H   0  0  0  0  0  0  0  0  0  0  0  0
   -0.0000    0.0001    0.0000 N   0  0  0  0  0  0  0  0  0  0  0  0
    1.3856    0.8000    0.0000 C   0  0  0  0  0  0  0  0  0  0  0  0
    2.7713    1.6000    0.0000 C   0  0  0  0  0  0  0  0  0  0  0  0
    2.7713    3.1999    0.0000 C   0  0  0  0  0  0  0  0  0  0  0  0
    4.1569    4.0001    0.0000 H   0  0  0  0  0  0  0  0  0  0  0  0
    1.3856    4.0001    0.0000 H   0  0  0  0  0  0  0  0  0  0  0  0
    4.1569    0.8000    0.0000 H   0  0  0  0  0  0  0  0  0  0  0  0
    2.1857   -0.5856    0.0000 H   0  0  0  0  0  0  0  0  0  0  0  0
    0.5858    2.1857    0.0000 H   0  0  0  0  0  0  0  0  0  0  0  0
   -0.0000   -1.6000    0.0000 C   0  0  0  0  0  0  0  0  0  0  0  0
   -0.0000   -3.1999    0.0000 C   0  0  0  0  0  0  0  0  0  0  0  0
    1.3856   -4.0001    0.0000 C   0  0  0  0  0  0  0  0  0  0  0  0
    1.3856   -5.6000    0.0000 H   0  0  0  0  0  0  0  0  0  0  0  0
    2.7713   -3.1999    0.0000 H   0  0  0  0  0  0  0  0  0  0  0  0
   -1.3857   -4.0001    0.0000 H   0  0  0  0  0  0  0  0  0  0  0  0
    1.5999   -1.6000    0.0000 H   0  0  0  0  0  0  0  0  0  0  0  0
   -1.6000   -1.6000    0.0000 H   0  0  0  0  0  0  0  0  0  0  0  0
   -1.1079    2.3756    0.0000 O   0  0  0  0  0  0  0  0  0  0  0  0
  1  2  1  0  0  0  0
  2  3  1  0  0  0  0
  3  4  1  0  0  0  0
  4  5  1  0  0  0  0
  5  6  4  0  0  0  0
  6  7  1  0  0  0  0
  6  8  4  0  0  0  0
  8  9  1  0  0  0  0
  8 10  4  0  0  0  0
 10 11  1  0  0  0  0
 10 12  4  0  0  0  0
 12 13  1  0  0  0  0
 12 14  4  0  0  0  0
 14  5  4  0  0  0  0
 14 15  1  0  0  0  0
  4 16  2  0  0  0  0
  2 17  1  0  0  0  0
  2 18  1  0  0  0  0
  1 19  1  0  0  0  0
 19 20  1  0  0  0  0
 20 21  1  0  0  0  0
 21 22  2  0  0  0  0
 22 23  1  0  0  0  0
 22 24  1  0  0  0  0
 21 25  1  0  0  0  0
 20 26  1  0  0  0  0
 20 27  1  0  0  0  0
 19 28  1  0  0  0  0
 28 29  1  0  0  0  0
 29 30  2  0  0  0  0
 30 31  1  0  0  0  0
 30 32  1  0  0  0  0
 29 33  1  0  0  0  0
 28 34  1  0  0  0  0
 28 35  1  0  0  0  0
  1 36  2  0  0  0  0
M  END
> <CAS>
106231-58-7

> <NAME>
ACETAMIDE, 2-(BENZOYLOXY)-N,N-BIS(2-PROPENYL)-

> <preferred_name>


> <iupac>


> <SMILES>
C=CCN(CC=C)C(=O)COC(=O)c1ccccc1

> <Canonical_QSARr>
C=CCN(CC=C)C(=O)COC(=O)c1ccccc1

> <InChI_Code_QSARr>
InChI=1S/C15H17NO3/c1-3-10-16(11-4-2)14(17)12-19-15(18)13-8-6-5-7-9-13/h3-9H,1-2,10-12H2

> <InChI Key_QSARr>
KIBXYDHXHWRNTP-UHFFFAOYSA-N

> <Salt_Solvent>
?

> <WS Temperature>
22

> <WS Reference>
NIELSEN,NM & BUNDGAARD,H (1988)

> <dsstox_substance_id>


> <LogMolar>
-2.5626

$$$$
107534-96-3
  -INDIGO-01081615412D

 43 44  0  0  0  0  0  0  0  0999 V2000
   -3.1756   -0.2779    0.0000 C   0  0  0  0  0  0  0  0  0  0  0  0
   -4.7758   -0.2779    0.0000 C   0  0  0  0  0  0  0  0  0  0  0  0
   -5.5757    1.1079    0.0000 C   0  0  0  0  0  0  0  0  0  0  0  0
   -4.7758    2.4935    0.0000 H   0  0  0  0  0  0  0  0  0  0  0  0
   -7.1756    1.1079    0.0000 C   0  0  0  0  0  0  0  0  0  0  0  0
   -7.9757    2.4935    0.0000 H   0  0  0  0  0  0  0  0  0  0  0  0
   -7.9757   -0.2779    0.0000 C   0  0  0  0  0  0  0  0  0  0  0  0
   -9.5757   -0.2779    0.0000 Cl  0  0  0  0  0  0  0  0  0  0  0  0
   -7.1756   -1.6635    0.0000 C   0  0  0  0  0  0  0  0  0  0  0  0
   -7.9757   -3.0491    0.0000 H   0  0  0  0  0  0  0  0  0  0  0  0
   -5.5757   -1.6635    0.0000 C   0  0  0  0  0  0  0  0  0  0  0  0
   -4.7758   -3.0491    0.0000 H   0  0  0  0  0  0  0  0  0  0  0  0
   -1.5757   -0.2779    0.0000 C   0  0  0  0  0  0  0  0  0  0  0  0
    0.0001   -0.0001    0.0000 C   0  0  0  0  0  0  0  0  0  0  0  0
   -0.2777   -1.5757    0.0000 C   0  0  0  0  0  0  0  0  0  0  0  0
   -0.8251   -3.0792    0.0000 N   0  0  0  1  0  0  0  0  0  0  0  0
    0.0697   -4.4057    0.0000 C   0  0  0  0  0  0  0  0  0  0  0  0
    1.6686   -4.4615    0.0000 H   0  0  0  0  0  0  0  0  0  0  0  0
   -0.9155   -5.6665    0.0000 N   0  0  0  1  0  0  0  0  0  0  0  0
   -2.4190   -5.1193    0.0000 C   0  0  0  0  0  0  0  0  0  0  0  0
   -3.7455   -6.0140    0.0000 H   0  0  0  0  0  0  0  0  0  0  0  0
   -2.3631   -3.5203    0.0000 N   0  0  0  1  0  0  0  0  0  0  0  0
    1.2258   -2.1230    0.0000 H   0  0  0  0  0  0  0  0  0  0  0  0
   -1.0359   -1.7521    0.0000 H   0  0  0  0  0  0  0  0  0  0  0  0
   -0.2777    1.5757    0.0000 O   0  0  0  0  0  0  0  0  0  0  0  0
   -1.7812    2.1229    0.0000 H   0  0  0  0  0  0  0  0  0  0  0  0
    1.5756    0.2779    0.0000 C   0  0  0  0  0  0  0  0  0  0  0  0
    3.1513    0.5557    0.0000 C   0  0  0  0  0  0  0  0  0  0  0  0
    4.7271    0.8335    0.0000 H   0  0  0  0  0  0  0  0  0  0  0  0
    3.6987    2.0592    0.0000 H   0  0  0  0  0  0  0  0  0  0  0  0
    4.1799   -0.6700    0.0000 H   0  0  0  0  0  0  0  0  0  0  0  0
    1.2978    1.8536    0.0000 C   0  0  0  0  0  0  0  0  0  0  0  0
    2.5234    2.8820    0.0000 H   0  0  0  0  0  0  0  0  0  0  0  0
    1.0199    3.4292    0.0000 H   0  0  0  0  0  0  0  0  0  0  0  0
   -0.2057    2.4008    0.0000 H   0  0  0  0  0  0  0  0  0  0  0  0
    1.8534   -1.2979    0.0000 C   0  0  0  0  0  0  0  0  0  0  0  0
    3.3571   -1.8450    0.0000 H   0  0  0  0  0  0  0  0  0  0  0  0
    2.1315   -2.8736    0.0000 H   0  0  0  0  0  0  0  0  0  0  0  0
    3.0791   -0.2694    0.0000 H   0  0  0  0  0  0  0  0  0  0  0  0
   -1.7812   -1.0285    0.0000 H   0  0  0  0  0  0  0  0  0  0  0  0
   -1.5757    1.3221    0.0000 H   0  0  0  0  0  0  0  0  0  0  0  0
   -3.1756   -1.8779    0.0000 H   0  0  0  0  0  0  0  0  0  0  0  0
   -3.1756    1.3221    0.0000 H   0  0  0  0  0  0  0  0  0  0  0  0
  1  2  1  0  0  0  0
  2  3  4  0  0  0  0
  3  4  1  0  0  0  0
  3  5  4  0  0  0  0
  5  6  1  0  0  0  0
  5  7  4  0  0  0  0
  7  8  1  0  0  0  0
  7  9  4  0  0  0  0
  9 10  1  0  0  0  0
  9 11  4  0  0  0  0
 11  2  4  0  0  0  0
 11 12  1  0  0  0  0
  1 13  1  0  0  0  0
 13 14  1  0  0  0  0
 14 15  1  0  0  0  0
 15 16  1  0  0  0  0
 16 17  4  0  0  0  0
 17 18  1  0  0  0  0
 17 19  4  0  0  0  0
 19 20  4  0  0  0  0
 20 21  1  0  0  0  0
 20 22  4  0  0  0  0
 22 16  4  0  0  0  0
 15 23  1  0  0  0  0
 15 24  1  0  0  0  0
 14 25  1  0  0  0  0
 25 26  1  0  0  0  0
 14 27  1  0  0  0  0
 27 28  1  0  0  0  0
 28 29  1  0  0  0  0
 28 30  1  0  0  0  0
 28 31  1  0  0  0  0
 27 32  1  0  0  0  0
 32 33  1  0  0  0  0
 32 34  1  0  0  0  0
 32 35  1  0  0  0  0
 27 36  1  0  0  0  0
 36 37  1  0  0  0  0
 36 38  1  0  0  0  0
 36 39  1  0  0  0  0
 13 40  1  0  0  0  0
 13 41  1  0  0  0  0
  1 42  1  0  0  0  0
  1 43  1  0  0  0  0
M  END
> <CAS>
107534-96-3

> <NAME>
TEBUCONAZOLE

> <preferred_name>
Tebuconazole

> <iupac>
1-(4-chlorophenyl)-4,4-dimethyl-3-(1H-1,2,4-triazol-1-ylmethyl)pentan-3-ol

> <SMILES>
CC(C)(C)C(O)(C[n]1c[n]c[n]1)CCc1ccc(Cl)cc1

> <Canonical_QSARr>
CC(C)(C)C(O)(C[n]1c[n]c[n]1)CCc1ccc(Cl)cc1

> <InChI_Code_QSARr>
InChI=1S/C16H22ClN3O/c1-15(2,3)16(21,10-20-12-18-11-19-20)9-8-13-4-6-14(17)7-5-13/h4-7,11-12,21H,8-10H2,1-3H3

> <InChI Key_QSARr>
PXMNMQRDXWABCY-UHFFFAOYSA-N

> <Salt_Solvent>
?

> <WS Temperature>
20

> <WS Reference>
TOMLIN,C (1997)

> <dsstox_substance_id>
DTXSID9032113

> <LogMolar>
-3.932

$$$$
108966-53-6
  -INDIGO-01081615412D

 34 34  0  0  0  0  0  0  0  0999 V2000
   -4.1570    2.4000    0.0000 S   0  0  0  0  0  0  0  0  0  0  0  0
   -5.5426    1.6000    0.0000 C   0  0  0  0  0  0  0  0  0  0  0  0
   -6.9282    2.4000    0.0000 C   0  0  0  0  0  0  0  0  0  0  0  0
   -6.9282    4.0000    0.0000 H   0  0  0  0  0  0  0  0  0  0  0  0
   -8.3138    1.6000    0.0000 C   0  0  0  0  0  0  0  0  0  0  0  0
   -9.6996    2.4000    0.0000 H   0  0  0  0  0  0  0  0  0  0  0  0
   -8.3138    0.0000    0.0000 C   0  0  0  0  0  0  0  0  0  0  0  0
   -9.6996   -0.8000    0.0000 S   0  0  0  0  0  0  0  0  0  0  0  0
  -11.0852   -1.6000    0.0000 N   0  0  0  0  0  0  0  0  0  0  0  0
  -12.4708   -0.8000    0.0000 H   0  0  0  0  0  0  0  0  0  0  0  0
  -11.0852   -3.2000    0.0000 H   0  0  0  0  0  0  0  0  0  0  0  0
  -10.4995    0.5856    0.0000 O   0  0  0  0  0  0  0  0  0  0  0  0
   -8.8994   -2.1856    0.0000 O   0  0  0  0  0  0  0  0  0  0  0  0
   -6.9282   -0.8000    0.0000 C   0  0  0  0  0  0  0  0  0  0  0  0
   -6.9282   -2.4000    0.0000 H   0  0  0  0  0  0  0  0  0  0  0  0
   -5.5426    0.0000    0.0000 C   0  0  0  0  0  0  0  0  0  0  0  0
   -4.1570   -0.8000    0.0000 H   0  0  0  0  0  0  0  0  0  0  0  0
   -2.7712    1.6000    0.0000 C   0  0  0  0  0  0  0  0  0  0  0  0
   -1.3856    0.8000    0.0000 C   0  0  0  0  0  0  0  0  0  0  0  0
   -0.0000    0.0000    0.0000 C   0  0  0  0  0  0  0  0  0  0  0  0
    1.2258   -1.0284    0.0000 C   0  0  0  0  0  0  0  0  0  0  0  0
    2.4513   -2.0570    0.0000 H   0  0  0  0  0  0  0  0  0  0  0  0
    2.7292   -0.4812    0.0000 H   0  0  0  0  0  0  0  0  0  0  0  0
    0.9479   -2.6042    0.0000 H   0  0  0  0  0  0  0  0  0  0  0  0
    1.0284    1.2257    0.0000 C   0  0  0  0  0  0  0  0  0  0  0  0
    2.0570    2.4513    0.0000 H   0  0  0  0  0  0  0  0  0  0  0  0
    2.6042    0.9478    0.0000 H   0  0  0  0  0  0  0  0  0  0  0  0
    0.7505    2.8014    0.0000 H   0  0  0  0  0  0  0  0  0  0  0  0
   -1.0284   -1.2256    0.0000 O   0  0  0  0  0  0  0  0  0  0  0  0
   -0.4813   -2.7292    0.0000 H   0  0  0  0  0  0  0  0  0  0  0  0
   -0.5857    2.1857    0.0000 H   0  0  0  0  0  0  0  0  0  0  0  0
   -2.1856   -0.5857    0.0000 H   0  0  0  0  0  0  0  0  0  0  0  0
   -1.9712    2.9856    0.0000 H   0  0  0  0  0  0  0  0  0  0  0  0
   -3.5714    0.2144    0.0000 H   0  0  0  0  0  0  0  0  0  0  0  0
  1  2  1  0  0  0  0
  2  3  4  0  0  0  0
  3  4  1  0  0  0  0
  3  5  4  0  0  0  0
  5  6  1  0  0  0  0
  5  7  4  0  0  0  0
  7  8  1  0  0  0  0
  8  9  1  0  0  0  0
  9 10  1  0  0  0  0
  9 11  1  0  0  0  0
  8 12  2  0  0  0  0
  8 13  2  0  0  0  0
  7 14  4  0  0  0  0
 14 15  1  0  0  0  0
 14 16  4  0  0  0  0
 16  2  4  0  0  0  0
 16 17  1  0  0  0  0
  1 18  1  0  0  0  0
 18 19  1  0  0  0  0
 19 20  1  0  0  0  0
 20 21  1  0  0  0  0
 21 22  1  0  0  0  0
 21 23  1  0  0  0  0
 21 24  1  0  0  0  0
 20 25  1  0  0  0  0
 25 26  1  0  0  0  0
 25 27  1  0  0  0  0
 25 28  1  0  0  0  0
 20 29  1  0  0  0  0
 29 30  1  0  0  0  0
 19 31  1  0  0  0  0
 19 32  1  0  0  0  0
 18 33  1  0  0  0  0
 18 34  1  0  0  0  0
M  END
> <CAS>
108966-53-6

> <NAME>
BENZENESULFONAMIDE, 4-[3-HYDROXY-3-METHYLBUTYL)T

> <preferred_name>
PUBCHEM_13960356

> <iupac>
C11H17NO3S2

> <SMILES>
CC(C)(O)CCSc1ccc(cc1)S(N)(=O)=O

> <Canonical_QSARr>
CC(C)(O)CCSc1ccc(cc1)S(N)(=O)=O

> <InChI_Code_QSARr>
InChI=1S/C11H17NO3S2/c1-11(2,13)7-8-16-9-3-5-10(6-4-9)17(12,14)15/h3-6,13H,7-8H2,1-2H3,(H2,12,14,15)

> <InChI Key_QSARr>
QDBGFWZGJHWBLM-UHFFFAOYSA-N

> <Salt_Solvent>
?

> <WS Temperature>
25

> <WS Reference>
SHEPARD,KL ET AL. (1991)

> <dsstox_substance_id>
DTXSID90553333

> <LogMolar>
-2.8379

$$$$
108966-58-1
  -INDIGO-01081615412D

 27 27  0  0  0  0  0  0  0  0999 V2000
    1.3856    0.8001    0.0000 S   0  0  0  0  0  0  0  0  0  0  0  0
    0.0001    0.0000    0.0000 C   0  0  0  0  0  0  0  0  0  0  0  0
   -1.3856    0.7999    0.0000 C   0  0  0  0  0  0  0  0  0  0  0  0
   -1.3856    2.3999    0.0000 H   0  0  0  0  0  0  0  0  0  0  0  0
   -2.7712    0.0000    0.0000 C   0  0  0  0  0  0  0  0  0  0  0  0
   -4.1569    0.7999    0.0000 H   0  0  0  0  0  0  0  0  0  0  0  0
   -2.7712   -1.6000    0.0000 C   0  0  0  0  0  0  0  0  0  0  0  0
   -4.1569   -2.4001    0.0000 S   0  0  0  0  0  0  0  0  0  0  0  0
   -5.5425   -1.6000    0.0000 C   0  0  0  0  0  0  0  0  0  0  0  0
   -6.9282   -0.8001    0.0000 C   0  0  0  0  0  0  0  0  0  0  0  0
   -8.3137    0.0000    0.0000 O   0  0  0  0  0  0  0  0  0  0  0  0
   -9.6995   -0.8001    0.0000 H   0  0  0  0  0  0  0  0  0  0  0  0
   -7.7283   -2.1856    0.0000 H   0  0  0  0  0  0  0  0  0  0  0  0
   -6.1281    0.5856    0.0000 H   0  0  0  0  0  0  0  0  0  0  0  0
   -6.3425   -2.9856    0.0000 H   0  0  0  0  0  0  0  0  0  0  0  0
   -4.7426   -0.2144    0.0000 H   0  0  0  0  0  0  0  0  0  0  0  0
   -1.3856   -2.4001    0.0000 C   0  0  0  0  0  0  0  0  0  0  0  0
   -1.3856   -3.9999    0.0000 N   0  0  0  0  0  0  0  0  0  0  0  0
    0.0001   -4.8000    0.0000 O   0  0  0  0  0  0  0  0  0  0  0  0
   -2.7712   -4.8000    0.0000 O   0  0  0  0  0  0  0  0  0  0  0  0
    0.0001   -1.6000    0.0000 C   0  0  0  0  0  0  0  0  0  0  0  0
    1.3856   -2.3999    0.0000 H   0  0  0  0  0  0  0  0  0  0  0  0
    2.7714    1.6000    0.0000 N   0  0  0  0  0  0  0  0  0  0  0  0
    2.7712    3.2000    0.0000 H   0  0  0  0  0  0  0  0  0  0  0  0
    4.1569    0.8001    0.0000 H   0  0  0  0  0  0  0  0  0  0  0  0
    0.5856    2.1856    0.0000 O   0  0  0  0  0  0  0  0  0  0  0  0
    2.1857   -0.5856    0.0000 O   0  0  0  0  0  0  0  0  0  0  0  0
  1  2  1  0  0  0  0
  2  3  4  0  0  0  0
  3  4  1  0  0  0  0
  3  5  4  0  0  0  0
  5  6  1  0  0  0  0
  5  7  4  0  0  0  0
  7  8  1  0  0  0  0
  8  9  1  0  0  0  0
  9 10  1  0  0  0  0
 10 11  1  0  0  0  0
 11 12  1  0  0  0  0
 10 13  1  0  0  0  0
 10 14  1  0  0  0  0
  9 15  1  0  0  0  0
  9 16  1  0  0  0  0
  7 17  4  0  0  0  0
 17 18  1  0  0  0  0
 18 19  2  0  0  0  0
 18 20  1  0  0  0  0
 17 21  4  0  0  0  0
 21  2  4  0  0  0  0
 21 22  1  0  0  0  0
  1 23  1  0  0  0  0
 23 24  1  0  0  0  0
 23 25  1  0  0  0  0
  1 26  2  0  0  0  0
  1 27  2  0  0  0  0
M  CHG  2  18   1  20  -1
M  END
> <CAS>
108966-58-1

> <NAME>
BENZENESULFONAMIDE, 4-[(2-HYDROXYETHYL)THIO]-3-N

> <preferred_name>
CHEMBL105730

> <iupac>
C8H10N2O5S2

> <SMILES>
NS(=O)(=O)c1cc(c(cc1)SCCO)[N+]([O-])=O

> <Canonical_QSARr>
NS(=O)(=O)c1cc(c(cc1)SCCO)[N+]([O-])=O

> <InChI_Code_QSARr>
InChI=1S/C8H10N2O5S2/c9-17(14,15)6-1-2-8(16-4-3-11)7(5-6)10(12)13/h1-2,5,11H,3-4H2,(H2,9,14,15)

> <InChI Key_QSARr>
UXGFMDKHLGDQJS-UHFFFAOYSA-N

> <Salt_Solvent>
?

> <WS Temperature>
25

> <WS Reference>
SHEPARD,KL ET AL. (1991)

> <dsstox_substance_id>
DTXSID50406614

> <LogMolar>
-2.7456

$$$$
108966-75-2
  -INDIGO-01081615412D

 31 31  0  0  0  0  0  0  0  0999 V2000
   -2.7714    1.6000    0.0000 S   0  0  0  0  0  0  0  0  0  0  0  0
   -4.1570    0.8000    0.0000 C   0  0  0  0  0  0  0  0  0  0  0  0
   -5.5426    1.6000    0.0000 C   0  0  0  0  0  0  0  0  0  0  0  0
   -5.5426    3.2000    0.0000 H   0  0  0  0  0  0  0  0  0  0  0  0
   -6.9281    0.8000    0.0000 C   0  0  0  0  0  0  0  0  0  0  0  0
   -8.3140    1.6000    0.0000 H   0  0  0  0  0  0  0  0  0  0  0  0
   -6.9281   -0.8000    0.0000 C   0  0  0  0  0  0  0  0  0  0  0  0
   -8.3140   -1.6000    0.0000 S   0  0  0  0  0  0  0  0  0  0  0  0
   -9.6995   -2.4000    0.0000 N   0  0  0  0  0  0  0  0  0  0  0  0
  -11.0851   -1.6000    0.0000 H   0  0  0  0  0  0  0  0  0  0  0  0
   -9.6995   -4.0000    0.0000 H   0  0  0  0  0  0  0  0  0  0  0  0
   -9.1140   -0.2144    0.0000 O   0  0  0  0  0  0  0  0  0  0  0  0
   -7.5137   -2.9856    0.0000 O   0  0  0  0  0  0  0  0  0  0  0  0
   -5.5426   -1.6000    0.0000 C   0  0  0  0  0  0  0  0  0  0  0  0
   -5.5426   -3.2000    0.0000 H   0  0  0  0  0  0  0  0  0  0  0  0
   -4.1570   -0.8000    0.0000 C   0  0  0  0  0  0  0  0  0  0  0  0
   -2.7714   -1.6000    0.0000 F   0  0  0  0  0  0  0  0  0  0  0  0
   -1.3856    0.8000    0.0000 C   0  0  0  0  0  0  0  0  0  0  0  0
    0.0000   -0.0000    0.0000 C   0  0  0  0  0  0  0  0  0  0  0  0
    1.3856   -0.8000    0.0000 C   0  0  0  0  0  0  0  0  0  0  0  0
    2.7714   -1.6000    0.0000 C   0  0  0  0  0  0  0  0  0  0  0  0
    4.1570   -2.4000    0.0000 O   0  0  0  0  0  0  0  0  0  0  0  0
    5.5426   -1.6000    0.0000 H   0  0  0  0  0  0  0  0  0  0  0  0
    3.5714   -0.2144    0.0000 H   0  0  0  0  0  0  0  0  0  0  0  0
    1.9712   -2.9856    0.0000 H   0  0  0  0  0  0  0  0  0  0  0  0
    2.1856    0.5857    0.0000 H   0  0  0  0  0  0  0  0  0  0  0  0
    0.5856   -2.1857    0.0000 H   0  0  0  0  0  0  0  0  0  0  0  0
    0.8000    1.3857    0.0000 H   0  0  0  0  0  0  0  0  0  0  0  0
   -0.8000   -1.3857    0.0000 H   0  0  0  0  0  0  0  0  0  0  0  0
   -0.5856    2.1856    0.0000 H   0  0  0  0  0  0  0  0  0  0  0  0
   -2.1856   -0.5856    0.0000 H   0  0  0  0  0  0  0  0  0  0  0  0
  1  2  1  0  0  0  0
  2  3  4  0  0  0  0
  3  4  1  0  0  0  0
  3  5  4  0  0  0  0
  5  6  1  0  0  0  0
  5  7  4  0  0  0  0
  7  8  1  0  0  0  0
  8  9  1  0  0  0  0
  9 10  1  0  0  0  0
  9 11  1  0  0  0  0
  8 12  2  0  0  0  0
  8 13  2  0  0  0  0
  7 14  4  0  0  0  0
 14 15  1  0  0  0  0
 14 16  4  0  0  0  0
 16  2  4  0  0  0  0
 16 17  1  0  0  0  0
  1 18  1  0  0  0  0
 18 19  1  0  0  0  0
 19 20  1  0  0  0  0
 20 21  1  0  0  0  0
 21 22  1  0  0  0  0
 22 23  1  0  0  0  0
 21 24  1  0  0  0  0
 21 25  1  0  0  0  0
 20 26  1  0  0  0  0
 20 27  1  0  0  0  0
 19 28  1  0  0  0  0
 19 29  1  0  0  0  0
 18 30  1  0  0  0  0
 18 31  1  0  0  0  0
M  END
> <CAS>
108966-75-2

> <NAME>
BENZENESULFONAMIDE, 3-FLUORO-4-[(4-HYDROXYBUTYL)

> <preferred_name>
PUBCHEM_13960377

> <iupac>
C10H14FNO3S2

> <SMILES>
NS(=O)(=O)c1cc(F)c(cc1)SCCCCO

> <Canonical_QSARr>
NS(=O)(=O)c1cc(F)c(cc1)SCCCCO

> <InChI_Code_QSARr>
InChI=1S/C10H14FNO3S2/c11-9-7-8(17(12,14)15)3-4-10(9)16-6-2-1-5-13/h3-4,7,13H,1-2,5-6H2,(H2,12,14,15)

> <InChI Key_QSARr>
VCSKMHJYQZYTKJ-UHFFFAOYSA-N

> <Salt_Solvent>
?

> <WS Temperature>
25

> <WS Reference>
SHEPARD,KL ET AL. (1991)

> <dsstox_substance_id>
DTXSID40553343

> <LogMolar>
-2.4461

$$$$
109293-97-2
  -INDIGO-01081615412D

 36 37  0  0  0  0  0  0  0  0999 V2000
    1.3858    0.8000    0.0000 N   0  0  0  1  0  0  0  0  0  0  0  0
   -0.0001   -0.0000    0.0000 C   0  0  0  0  0  0  0  0  0  0  0  0
   -1.3856    0.8000    0.0000 C   0  0  0  0  0  0  0  0  0  0  0  0
   -2.7712   -0.0000    0.0000 N   0  0  0  0  0  0  0  0  0  0  0  0
   -4.1570    0.8000    0.0000 N   0  0  0  0  0  0  0  0  0  0  0  0
   -5.5426   -0.0000    0.0000 C   0  0  0  0  0  0  0  0  0  0  0  0
   -6.9282    0.8000    0.0000 N   0  0  0  0  0  0  0  0  0  0  0  0
   -8.3138   -0.0000    0.0000 C   0  0  0  0  0  0  0  0  0  0  0  0
   -9.6996    0.8000    0.0000 C   0  0  0  0  0  0  0  0  0  0  0  0
   -9.6996    2.4001    0.0000 H   0  0  0  0  0  0  0  0  0  0  0  0
  -11.0852   -0.0000    0.0000 C   0  0  0  0  0  0  0  0  0  0  0  0
  -12.4708    0.8000    0.0000 F   0  0  0  0  0  0  0  0  0  0  0  0
  -11.0852   -1.6000    0.0000 C   0  0  0  0  0  0  0  0  0  0  0  0
  -12.4708   -2.4000    0.0000 H   0  0  0  0  0  0  0  0  0  0  0  0
   -9.6996   -2.4000    0.0000 C   0  0  0  0  0  0  0  0  0  0  0  0
   -9.6996   -4.0000    0.0000 F   0  0  0  0  0  0  0  0  0  0  0  0
   -8.3138   -1.6000    0.0000 C   0  0  0  0  0  0  0  0  0  0  0  0
   -6.9282   -2.4000    0.0000 H   0  0  0  0  0  0  0  0  0  0  0  0
   -6.9282    2.4001    0.0000 H   0  0  0  0  0  0  0  0  0  0  0  0
   -5.5426   -1.6000    0.0000 O   0  0  0  0  0  0  0  0  0  0  0  0
   -4.1570    2.4001    0.0000 H   0  0  0  0  0  0  0  0  0  0  0  0
   -1.3856    2.4001    0.0000 C   0  0  0  0  0  0  0  0  0  0  0  0
   -1.3856    4.0000    0.0000 H   0  0  0  0  0  0  0  0  0  0  0  0
   -2.7712    3.2000    0.0000 H   0  0  0  0  0  0  0  0  0  0  0  0
   -0.0001    3.2000    0.0000 H   0  0  0  0  0  0  0  0  0  0  0  0
   -0.0001   -1.6000    0.0000 C   0  0  0  0  0  0  0  0  0  0  0  0
   -1.3856   -2.4000    0.0000 C   0  0  0  0  0  0  0  0  0  0  0  0
   -1.3856   -4.0000    0.0000 O   0  0  0  0  0  0  0  0  0  0  0  0
   -2.7712   -4.8000    0.0000 H   0  0  0  0  0  0  0  0  0  0  0  0
   -2.7712   -1.6000    0.0000 O   0  0  0  0  0  0  0  0  0  0  0  0
    1.3858   -2.4000    0.0000 C   0  0  0  0  0  0  0  0  0  0  0  0
    1.3858   -4.0000    0.0000 H   0  0  0  0  0  0  0  0  0  0  0  0
    2.7713   -1.6000    0.0000 C   0  0  0  0  0  0  0  0  0  0  0  0
    4.1569   -2.4000    0.0000 H   0  0  0  0  0  0  0  0  0  0  0  0
    2.7713   -0.0000    0.0000 C   0  0  0  0  0  0  0  0  0  0  0  0
    4.1569    0.8000    0.0000 H   0  0  0  0  0  0  0  0  0  0  0  0
  1  2  4  0  0  0  0
  2  3  1  0  0  0  0
  3  4  2  0  0  0  0
  4  5  1  0  0  0  0
  5  6  1  0  0  0  0
  6  7  1  0  0  0  0
  7  8  1  0  0  0  0
  8  9  4  0  0  0  0
  9 10  1  0  0  0  0
  9 11  4  0  0  0  0
 11 12  1  0  0  0  0
 11 13  4  0  0  0  0
 13 14  1  0  0  0  0
 13 15  4  0  0  0  0
 15 16  1  0  0  0  0
 15 17  4  0  0  0  0
 17  8  4  0  0  0  0
 17 18  1  0  0  0  0
  7 19  1  0  0  0  0
  6 20  2  0  0  0  0
  5 21  1  0  0  0  0
  3 22  1  0  0  0  0
 22 23  1  0  0  0  0
 22 24  1  0  0  0  0
 22 25  1  0  0  0  0
  2 26  4  0  0  0  0
 26 27  1  0  0  0  0
 27 28  1  0  0  0  0
 28 29  1  0  0  0  0
 27 30  2  0  0  0  0
 26 31  4  0  0  0  0
 31 32  1  0  0  0  0
 31 33  4  0  0  0  0
 33 34  1  0  0  0  0
 33 35  4  0  0  0  0
 35  1  4  0  0  0  0
 35 36  1  0  0  0  0
M  END
> <CAS>
109293-97-2

> <NAME>
BAS 654 00 H

> <preferred_name>
Diflufenzopyr

> <iupac>
2-[(1E)-1-{2-[(3,5-difluorophenyl)carbamoyl]hydrazinylidene}ethyl]pyridine-3-carboxylic acid

> <SMILES>
C/C(=N\NC(=O)Nc1cc(F)cc(F)c1)/c1[n]cccc1C(O)=O

> <Canonical_QSARr>
CC(=NNC(=O)Nc1cc(F)cc(F)c1)c1[n]cccc1C(O)=O

> <InChI_Code_QSARr>
InChI=1S/C15H12F2N4O3/c1-8(13-12(14(22)23)3-2-4-18-13)20-21-15(24)19-11-6-9(16)5-10(17)7-11/h2-7H,1H3,(H,22,23)(H2,19,21,24)/b20-8+

> <InChI Key_QSARr>
IRJQWZWMQCVOLA-DNTJNYDQSA-N

> <Salt_Solvent>
?

> <WS Temperature>


> <WS Reference>
TOMLIN,C (1997)

> <dsstox_substance_id>
DTXSID8034538

> <LogMolar>
-3.7248

$$$$
110956-75-7
  -INDIGO-01081615412D

 41 43  0  0  0  0  0  0  0  0999 V2000
    9.8761   -1.6015    0.0000 C   0  0  0  0  0  0  0  0  0  0  0  0
   10.2088   -0.0364    0.0000 C   0  0  0  0  0  0  0  0  0  0  0  0
    9.0197    1.0341    0.0000 C   0  0  0  0  0  0  0  0  0  0  0  0
    9.1869    2.6254    0.0000 O   0  0  0  0  0  0  0  0  0  0  0  0
    7.7252    3.2761    0.0000 C   0  0  0  0  0  0  0  0  0  0  0  0
    7.3925    4.8412    0.0000 O   0  0  0  0  0  0  0  0  0  0  0  0
    6.6546    2.0871    0.0000 N   0  0  0  0  0  0  0  0  0  0  0  0
    5.0634    2.2543    0.0000 C   0  0  0  0  0  0  0  0  0  0  0  0
    4.4127    3.7160    0.0000 C   0  0  0  0  0  0  0  0  0  0  0  0
    5.3531    5.0104    0.0000 F   0  0  0  0  0  0  0  0  0  0  0  0
    2.8212    3.8832    0.0000 C   0  0  0  0  0  0  0  0  0  0  0  0
    2.1705    5.3450    0.0000 H   0  0  0  0  0  0  0  0  0  0  0  0
    1.8808    2.5889    0.0000 C   0  0  0  0  0  0  0  0  0  0  0  0
    0.2897    2.7561    0.0000 Cl  0  0  0  0  0  0  0  0  0  0  0  0
    2.5316    1.1272    0.0000 C   0  0  0  0  0  0  0  0  0  0  0  0
    1.5912   -0.1672    0.0000 O   0  0  0  0  0  0  0  0  0  0  0  0
    0.0000   -0.0000    0.0000 C   0  0  0  0  0  0  0  0  0  0  0  0
   -1.5217    0.4944    0.0000 C   0  0  0  0  0  0  0  0  0  0  0  0
   -0.8710    1.9561    0.0000 H   0  0  0  0  0  0  0  0  0  0  0  0
   -2.9073    1.2945    0.0000 H   0  0  0  0  0  0  0  0  0  0  0  0
   -2.4621   -0.8000    0.0000 C   0  0  0  0  0  0  0  0  0  0  0  0
   -3.6512    0.2707    0.0000 H   0  0  0  0  0  0  0  0  0  0  0  0
   -3.6512   -1.8706    0.0000 H   0  0  0  0  0  0  0  0  0  0  0  0
   -1.5217   -2.0944    0.0000 C   0  0  0  0  0  0  0  0  0  0  0  0
   -2.9073   -2.8944    0.0000 H   0  0  0  0  0  0  0  0  0  0  0  0
   -0.8710   -3.5561    0.0000 H   0  0  0  0  0  0  0  0  0  0  0  0
    0.0000   -1.6000    0.0000 C   0  0  0  0  0  0  0  0  0  0  0  0
    0.3328   -3.1651    0.0000 H   0  0  0  0  0  0  0  0  0  0  0  0
    1.5912   -1.4328    0.0000 H   0  0  0  0  0  0  0  0  0  0  0  0
    0.3328    1.5650    0.0000 H   0  0  0  0  0  0  0  0  0  0  0  0
    4.1230    0.9600    0.0000 C   0  0  0  0  0  0  0  0  0  0  0  0
    4.7737   -0.5017    0.0000 H   0  0  0  0  0  0  0  0  0  0  0  0
    7.4546    0.7015    0.0000 C   0  0  0  0  0  0  0  0  0  0  0  0
    6.8039   -0.7602    0.0000 O   0  0  0  0  0  0  0  0  0  0  0  0
   11.7303    0.4580    0.0000 C   0  0  0  0  0  0  0  0  0  0  0  0
   13.2521    0.9524    0.0000 H   0  0  0  0  0  0  0  0  0  0  0  0
   12.9193   -0.6126    0.0000 H   0  0  0  0  0  0  0  0  0  0  0  0
   12.0630    2.0230    0.0000 H   0  0  0  0  0  0  0  0  0  0  0  0
    9.5433   -3.1666    0.0000 H   0  0  0  0  0  0  0  0  0  0  0  0
   11.0651   -2.6722    0.0000 H   0  0  0  0  0  0  0  0  0  0  0  0
    8.3543   -2.0959    0.0000 H   0  0  0  0  0  0  0  0  0  0  0  0
  1  2  1  0  0  0  0
  2  3  2  0  0  0  0
  3  4  1  0  0  0  0
  4  5  1  0  0  0  0
  5  6  2  0  0  0  0
  5  7  1  0  0  0  0
  7  8  1  0  0  0  0
  8  9  4  0  0  0  0
  9 10  1  0  0  0  0
  9 11  4  0  0  0  0
 11 12  1  0  0  0  0
 11 13  4  0  0  0  0
 13 14  1  0  0  0  0
 13 15  4  0  0  0  0
 15 16  1  0  0  0  0
 16 17  1  0  0  0  0
 17 18  1  0  0  0  0
 18 19  1  0  0  0  0
 18 20  1  0  0  0  0
 18 21  1  0  0  0  0
 21 22  1  0  0  0  0
 21 23  1  0  0  0  0
 21 24  1  0  0  0  0
 24 25  1  0  0  0  0
 24 26  1  0  0  0  0
 24 27  1  0  0  0  0
 27 17  1  0  0  0  0
 27 28  1  0  0  0  0
 27 29  1  0  0  0  0
 17 30  1  0  0  0  0
 15 31  4  0  0  0  0
 31  8  4  0  0  0  0
 31 32  1  0  0  0  0
  7 33  1  0  0  0  0
 33  3  1  0  0  0  0
 33 34  2  0  0  0  0
  2 35  1  0  0  0  0
 35 36  1  0  0  0  0
 35 37  1  0  0  0  0
 35 38  1  0  0  0  0
  1 39  1  0  0  0  0
  1 40  1  0  0  0  0
  1 41  1  0  0  0  0
M  END
> <CAS>
110956-75-7

> <NAME>
PENTOXAZONE

> <preferred_name>
Pentoxazone

> <iupac>
3-[4-chloro-5-(cyclopentyloxy)-2-fluorophenyl]-5-isopropylidene-1,3-oxazolidine-2,4-dione

> <SMILES>
CC(C)=C1OC(=O)N(c2cc(OC3CCCC3)c(Cl)cc2F)C1=O

> <Canonical_QSARr>
CC(C)=C1OC(=O)N(c2cc(OC3CCCC3)c(Cl)cc2F)C1=O

> <InChI_Code_QSARr>
InChI=1S/C17H17ClFNO4/c1-9(2)15-16(21)20(17(22)24-15)13-8-14(11(18)7-12(13)19)23-10-5-3-4-6-10/h7-8,10H,3-6H2,1-2H3

> <InChI Key_QSARr>
JZPKLLLUDLHCEL-UHFFFAOYSA-N

> <Salt_Solvent>
?

> <WS Temperature>
25

> <WS Reference>
TOMLIN,C (1997)

> <dsstox_substance_id>
DTXSID3057933

> <LogMolar>
-6.2143

$$$$
111812-58-9
  -INDIGO-01081615412D

 58 60  0  0  0  0  0  0  0  0999 V2000
   16.8832    0.3357    0.0000 C   0  0  0  0  0  0  0  0  0  0  0  0
   15.5888    1.2762    0.0000 N   0  0  0  1  0  0  0  0  0  0  0  0
   16.3887    2.6617    0.0000 N   0  0  0  1  0  0  0  0  0  0  0  0
   15.3182    3.8508    0.0000 C   0  0  0  0  0  0  0  0  0  0  0  0
   15.6507    5.4158    0.0000 C   0  0  0  0  0  0  0  0  0  0  0  0
   15.9834    6.9809    0.0000 H   0  0  0  0  0  0  0  0  0  0  0  0
   17.1725    5.9103    0.0000 H   0  0  0  0  0  0  0  0  0  0  0  0
   14.4619    6.4864    0.0000 H   0  0  0  0  0  0  0  0  0  0  0  0
   13.8563    3.1999    0.0000 C   0  0  0  0  0  0  0  0  0  0  0  0
   12.4708    4.0001    0.0000 C   0  0  0  0  0  0  0  0  0  0  0  0
   11.0850    3.1999    0.0000 N   0  0  0  0  0  0  0  0  0  0  0  0
    9.6996    4.0001    0.0000 O   0  0  0  0  0  0  0  0  0  0  0  0
    8.3138    3.1999    0.0000 C   0  0  0  0  0  0  0  0  0  0  0  0
    6.9283    2.4000    0.0000 C   0  0  0  0  0  0  0  0  0  0  0  0
    5.5425    3.1999    0.0000 C   0  0  0  0  0  0  0  0  0  0  0  0
    5.5425    4.8000    0.0000 H   0  0  0  0  0  0  0  0  0  0  0  0
    4.1571    2.4000    0.0000 C   0  0  0  0  0  0  0  0  0  0  0  0
    2.7713    3.1999    0.0000 H   0  0  0  0  0  0  0  0  0  0  0  0
    4.1571    0.7999    0.0000 C   0  0  0  0  0  0  0  0  0  0  0  0
    2.7713   -0.0000    0.0000 C   0  0  0  0  0  0  0  0  0  0  0  0
    1.3855    0.7999    0.0000 O   0  0  0  0  0  0  0  0  0  0  0  0
    0.0000   -0.0000    0.0000 C   0  0  0  0  0  0  0  0  0  0  0  0
   -1.3857   -0.8000    0.0000 C   0  0  0  0  0  0  0  0  0  0  0  0
   -2.8891   -1.3472    0.0000 H   0  0  0  0  0  0  0  0  0  0  0  0
   -2.6115    0.2285    0.0000 H   0  0  0  0  0  0  0  0  0  0  0  0
   -1.6634   -2.3757    0.0000 H   0  0  0  0  0  0  0  0  0  0  0  0
   -0.7999    1.3857    0.0000 C   0  0  0  0  0  0  0  0  0  0  0  0
   -1.5999    2.7712    0.0000 H   0  0  0  0  0  0  0  0  0  0  0  0
    0.0000    2.7712    0.0000 H   0  0  0  0  0  0  0  0  0  0  0  0
   -2.3999    1.3857    0.0000 H   0  0  0  0  0  0  0  0  0  0  0  0
    0.8000   -1.3856    0.0000 C   0  0  0  0  0  0  0  0  0  0  0  0
    1.8284   -2.6114    0.0000 H   0  0  0  0  0  0  0  0  0  0  0  0
    0.2528   -2.8891    0.0000 H   0  0  0  0  0  0  0  0  0  0  0  0
   -0.7034   -1.9329    0.0000 H   0  0  0  0  0  0  0  0  0  0  0  0
    2.7713   -1.5999    0.0000 O   0  0  0  0  0  0  0  0  0  0  0  0
    5.5425   -0.0000    0.0000 C   0  0  0  0  0  0  0  0  0  0  0  0
    5.5425   -1.5999    0.0000 H   0  0  0  0  0  0  0  0  0  0  0  0
    6.9283    0.7999    0.0000 C   0  0  0  0  0  0  0  0  0  0  0  0
    8.3138   -0.0000    0.0000 H   0  0  0  0  0  0  0  0  0  0  0  0
    9.1138    1.8144    0.0000 H   0  0  0  0  0  0  0  0  0  0  0  0
    7.5138    4.5857    0.0000 H   0  0  0  0  0  0  0  0  0  0  0  0
   12.4708    5.6000    0.0000 H   0  0  0  0  0  0  0  0  0  0  0  0
   14.0238    1.6088    0.0000 C   0  0  0  0  0  0  0  0  0  0  0  0
   12.8347    0.5382    0.0000 O   0  0  0  0  0  0  0  0  0  0  0  0
   13.1671   -1.0270    0.0000 C   0  0  0  0  0  0  0  0  0  0  0  0
   14.6890   -1.5212    0.0000 C   0  0  0  0  0  0  0  0  0  0  0  0
   15.8781   -0.4507    0.0000 H   0  0  0  0  0  0  0  0  0  0  0  0
   15.0218   -3.0862    0.0000 C   0  0  0  0  0  0  0  0  0  0  0  0
   16.5433   -3.5807    0.0000 H   0  0  0  0  0  0  0  0  0  0  0  0
   13.8326   -4.1570    0.0000 C   0  0  0  0  0  0  0  0  0  0  0  0
   14.1654   -5.7220    0.0000 H   0  0  0  0  0  0  0  0  0  0  0  0
   12.3108   -3.6625    0.0000 C   0  0  0  0  0  0  0  0  0  0  0  0
   11.1220   -4.7331    0.0000 H   0  0  0  0  0  0  0  0  0  0  0  0
   11.9783   -2.0975    0.0000 C   0  0  0  0  0  0  0  0  0  0  0  0
   10.4565   -1.6030    0.0000 H   0  0  0  0  0  0  0  0  0  0  0  0
   18.1776   -0.6048    0.0000 H   0  0  0  0  0  0  0  0  0  0  0  0
   18.3448    0.9864    0.0000 H   0  0  0  0  0  0  0  0  0  0  0  0
   16.7160   -1.2555    0.0000 H   0  0  0  0  0  0  0  0  0  0  0  0
  1  2  1  0  0  0  0
  2  3  4  0  0  0  0
  3  4  4  0  0  0  0
  4  5  1  0  0  0  0
  5  6  1  0  0  0  0
  5  7  1  0  0  0  0
  5  8  1  0  0  0  0
  4  9  4  0  0  0  0
  9 10  1  0  0  0  0
 10 11  2  0  0  0  0
 11 12  1  0  0  0  0
 12 13  1  0  0  0  0
 13 14  1  0  0  0  0
 14 15  4  0  0  0  0
 15 16  1  0  0  0  0
 15 17  4  0  0  0  0
 17 18  1  0  0  0  0
 17 19  4  0  0  0  0
 19 20  1  0  0  0  0
 20 21  1  0  0  0  0
 21 22  1  0  0  0  0
 22 23  1  0  0  0  0
 23 24  1  0  0  0  0
 23 25  1  0  0  0  0
 23 26  1  0  0  0  0
 22 27  1  0  0  0  0
 27 28  1  0  0  0  0
 27 29  1  0  0  0  0
 27 30  1  0  0  0  0
 22 31  1  0  0  0  0
 31 32  1  0  0  0  0
 31 33  1  0  0  0  0
 31 34  1  0  0  0  0
 20 35  2  0  0  0  0
 19 36  4  0  0  0  0
 36 37  1  0  0  0  0
 36 38  4  0  0  0  0
 38 14  4  0  0  0  0
 38 39  1  0  0  0  0
 13 40  1  0  0  0  0
 13 41  1  0  0  0  0
 10 42  1  0  0  0  0
  9 43  4  0  0  0  0
 43  2  4  0  0  0  0
 43 44  1  0  0  0  0
 44 45  1  0  0  0  0
 45 46  4  0  0  0  0
 46 47  1  0  0  0  0
 46 48  4  0  0  0  0
 48 49  1  0  0  0  0
 48 50  4  0  0  0  0
 50 51  1  0  0  0  0
 50 52  4  0  0  0  0
 52 53  1  0  0  0  0
 52 54  4  0  0  0  0
 54 45  4  0  0  0  0
 54 55  1  0  0  0  0
  1 56  1  0  0  0  0
  1 57  1  0  0  0  0
  1 58  1  0  0  0  0
M  END
> <CAS>
111812-58-9

> <NAME>
Fenpyroximate

> <preferred_name>
Fenpyroximate (Z,E)

> <iupac>


> <SMILES>
Cc1[n][n](C)c(Oc2ccccc2)c1C=NOCc1ccc(cc1)C(=O)OC(C)(C)C

> <Canonical_QSARr>
Cc1[n][n](C)c(Oc2ccccc2)c1C=NOCc1ccc(cc1)C(=O)OC(C)(C)C

> <InChI_Code_QSARr>
InChI=1S/C24H27N3O4/c1-17-21(22(27(5)26-17)30-20-9-7-6-8-10-20)15-25-29-16-18-11-13-19(14-12-18)23(28)31-24(2,3)4/h6-15H,16H2,1-5H3/b25-15+

> <InChI Key_QSARr>
YYJNOYZRYGDPNH-MFKUBSTISA-N

> <Salt_Solvent>
?

> <WS Temperature>
20

> <WS Reference>
TOMLIN,C (1994)

> <dsstox_substance_id>
DTXSID2032550

> <LogMolar>
-7.4604

$$$$
112410-23-8
  -INDIGO-01081615412D

 54 55  0  0  0  0  0  0  0  0999 V2000
    0.7506   -2.8013    0.0000 C   0  0  0  0  0  0  0  0  0  0  0  0
   -0.2779   -1.5757    0.0000 N   0  0  0  0  0  0  0  0  0  0  0  0
    0.0000    0.0001    0.0000 C   0  0  0  0  0  0  0  0  0  0  0  0
    0.0000    1.6000    0.0000 C   0  0  0  0  0  0  0  0  0  0  0  0
    0.0000    3.2000    0.0000 H   0  0  0  0  0  0  0  0  0  0  0  0
   -1.2257    2.6285    0.0000 H   0  0  0  0  0  0  0  0  0  0  0  0
    1.2257    2.6285    0.0000 H   0  0  0  0  0  0  0  0  0  0  0  0
    1.6001    0.0001    0.0000 C   0  0  0  0  0  0  0  0  0  0  0  0
    3.2000    0.0001    0.0000 H   0  0  0  0  0  0  0  0  0  0  0  0
    2.3999    1.3856    0.0000 H   0  0  0  0  0  0  0  0  0  0  0  0
    1.3222    1.5756    0.0000 H   0  0  0  0  0  0  0  0  0  0  0  0
   -1.6001    0.0001    0.0000 C   0  0  0  0  0  0  0  0  0  0  0  0
   -3.1999    0.0001    0.0000 H   0  0  0  0  0  0  0  0  0  0  0  0
   -2.4001    1.3856    0.0000 H   0  0  0  0  0  0  0  0  0  0  0  0
   -1.0528    1.5035    0.0000 H   0  0  0  0  0  0  0  0  0  0  0  0
   -1.7813   -2.1229    0.0000 N   0  0  0  0  0  0  0  0  0  0  0  0
   -2.0592   -3.6987    0.0000 C   0  0  0  0  0  0  0  0  0  0  0  0
   -3.5626   -4.2459    0.0000 C   0  0  0  0  0  0  0  0  0  0  0  0
   -4.7883   -3.2174    0.0000 C   0  0  0  0  0  0  0  0  0  0  0  0
   -4.5106   -1.6417    0.0000 H   0  0  0  0  0  0  0  0  0  0  0  0
   -6.2919   -3.7647    0.0000 C   0  0  0  0  0  0  0  0  0  0  0  0
   -7.5176   -2.7362    0.0000 H   0  0  0  0  0  0  0  0  0  0  0  0
   -6.5696   -5.3403    0.0000 C   0  0  0  0  0  0  0  0  0  0  0  0
   -8.0732   -5.8875    0.0000 C   0  0  0  0  0  0  0  0  0  0  0  0
   -9.5766   -6.4348    0.0000 C   0  0  0  0  0  0  0  0  0  0  0  0
  -11.0802   -6.9820    0.0000 H   0  0  0  0  0  0  0  0  0  0  0  0
   -9.8545   -8.0105    0.0000 H   0  0  0  0  0  0  0  0  0  0  0  0
  -10.8023   -5.4063    0.0000 H   0  0  0  0  0  0  0  0  0  0  0  0
   -7.5259   -7.3910    0.0000 H   0  0  0  0  0  0  0  0  0  0  0  0
   -8.6205   -4.3841    0.0000 H   0  0  0  0  0  0  0  0  0  0  0  0
   -5.3442   -6.3687    0.0000 C   0  0  0  0  0  0  0  0  0  0  0  0
   -5.6218   -7.9445    0.0000 H   0  0  0  0  0  0  0  0  0  0  0  0
   -3.8405   -5.8215    0.0000 C   0  0  0  0  0  0  0  0  0  0  0  0
   -2.6148   -6.8500    0.0000 H   0  0  0  0  0  0  0  0  0  0  0  0
   -0.8335   -4.7271    0.0000 O   0  0  0  0  0  0  0  0  0  0  0  0
   -3.0070   -1.0944    0.0000 H   0  0  0  0  0  0  0  0  0  0  0  0
    2.1363   -3.6014    0.0000 C   0  0  0  0  0  0  0  0  0  0  0  0
    2.1363   -5.2014    0.0000 C   0  0  0  0  0  0  0  0  0  0  0  0
    0.7506   -6.0014    0.0000 H   0  0  0  0  0  0  0  0  0  0  0  0
    3.5220   -6.0014    0.0000 C   0  0  0  0  0  0  0  0  0  0  0  0
    3.5220   -7.6014    0.0000 C   0  0  0  0  0  0  0  0  0  0  0  0
    3.5220   -9.2014    0.0000 H   0  0  0  0  0  0  0  0  0  0  0  0
    4.9074   -8.4013    0.0000 H   0  0  0  0  0  0  0  0  0  0  0  0
    2.1363   -8.4013    0.0000 H   0  0  0  0  0  0  0  0  0  0  0  0
    4.9074   -5.2014    0.0000 C   0  0  0  0  0  0  0  0  0  0  0  0
    6.2931   -6.0014    0.0000 H   0  0  0  0  0  0  0  0  0  0  0  0
    4.9074   -3.6014    0.0000 C   0  0  0  0  0  0  0  0  0  0  0  0
    6.2931   -2.8013    0.0000 C   0  0  0  0  0  0  0  0  0  0  0  0
    7.6788   -2.0014    0.0000 H   0  0  0  0  0  0  0  0  0  0  0  0
    7.6788   -3.6014    0.0000 H   0  0  0  0  0  0  0  0  0  0  0  0
    6.2931   -1.2014    0.0000 H   0  0  0  0  0  0  0  0  0  0  0  0
    3.5220   -2.8013    0.0000 C   0  0  0  0  0  0  0  0  0  0  0  0
    3.5220   -1.2014    0.0000 H   0  0  0  0  0  0  0  0  0  0  0  0
    0.2033   -4.3048    0.0000 O   0  0  0  0  0  0  0  0  0  0  0  0
  1  2  1  0  0  0  0
  2  3  1  0  0  0  0
  3  4  1  0  0  0  0
  4  5  1  0  0  0  0
  4  6  1  0  0  0  0
  4  7  1  0  0  0  0
  3  8  1  0  0  0  0
  8  9  1  0  0  0  0
  8 10  1  0  0  0  0
  8 11  1  0  0  0  0
  3 12  1  0  0  0  0
 12 13  1  0  0  0  0
 12 14  1  0  0  0  0
 12 15  1  0  0  0  0
  2 16  1  0  0  0  0
 16 17  1  0  0  0  0
 17 18  1  0  0  0  0
 18 19  4  0  0  0  0
 19 20  1  0  0  0  0
 19 21  4  0  0  0  0
 21 22  1  0  0  0  0
 21 23  4  0  0  0  0
 23 24  1  0  0  0  0
 24 25  1  0  0  0  0
 25 26  1  0  0  0  0
 25 27  1  0  0  0  0
 25 28  1  0  0  0  0
 24 29  1  0  0  0  0
 24 30  1  0  0  0  0
 23 31  4  0  0  0  0
 31 32  1  0  0  0  0
 31 33  4  0  0  0  0
 33 18  4  0  0  0  0
 33 34  1  0  0  0  0
 17 35  2  0  0  0  0
 16 36  1  0  0  0  0
  1 37  1  0  0  0  0
 37 38  4  0  0  0  0
 38 39  1  0  0  0  0
 38 40  4  0  0  0  0
 40 41  1  0  0  0  0
 41 42  1  0  0  0  0
 41 43  1  0  0  0  0
 41 44  1  0  0  0  0
 40 45  4  0  0  0  0
 45 46  1  0  0  0  0
 45 47  4  0  0  0  0
 47 48  1  0  0  0  0
 48 49  1  0  0  0  0
 48 50  1  0  0  0  0
 48 51  1  0  0  0  0
 47 52  4  0  0  0  0
 52 37  4  0  0  0  0
 52 53  1  0  0  0  0
  1 54  2  0  0  0  0
M  END
> <CAS>
112410-23-8

> <NAME>
TEBUFENOZIDE

> <preferred_name>
Tebufenozide

> <iupac>
N-tert-butyl-N'-(4-ethylbenzoyl)-3,5-dimethylbenzohydrazide

> <SMILES>
CCc1ccc(cc1)C(=O)NN(C(=O)c1cc(C)cc(C)c1)C(C)(C)C

> <Canonical_QSARr>
CCc1ccc(cc1)C(=O)NN(C(=O)c1cc(C)cc(C)c1)C(C)(C)C

> <InChI_Code_QSARr>
InChI=1S/C22H28N2O2/c1-7-17-8-10-18(11-9-17)20(25)23-24(22(4,5)6)21(26)19-13-15(2)12-16(3)14-19/h8-14H,7H2,1-6H3,(H,23,25)

> <InChI Key_QSARr>
QYPNKSZPJQQLRK-UHFFFAOYSA-N

> <Salt_Solvent>
?

> <WS Temperature>
25

> <WS Reference>
TOMLIN,C (1997)

> <dsstox_substance_id>
DTXSID4034948

> <LogMolar>
-5.6281

$$$$
114592-79-9
  -INDIGO-01081615412D

 18 18  0  0  0  0  0  0  0  0999 V2000
   -1.6000    1.6000    0.0000 O   0  0  0  0  0  0  0  0  0  0  0  0
   -1.6000    0.0000    0.0000 C   0  0  0  0  0  0  0  0  0  0  0  0
   -3.1999    0.0000    0.0000 C   0  0  0  0  0  0  0  0  0  0  0  0
   -4.8000    0.0000    0.0000 H   0  0  0  0  0  0  0  0  0  0  0  0
   -4.0000   -1.3857    0.0000 H   0  0  0  0  0  0  0  0  0  0  0  0
   -4.0000    1.3857    0.0000 H   0  0  0  0  0  0  0  0  0  0  0  0
   -1.6000   -1.6000    0.0000 H   0  0  0  0  0  0  0  0  0  0  0  0
    0.0001    0.0000    0.0000 C   0  0  0  0  0  0  0  0  0  0  0  0
    1.6000    0.0000    0.0000 C   0  0  0  0  0  0  0  0  0  0  0  0
    3.2001    0.0000    0.0000 C   0  0  0  0  0  0  0  0  0  0  0  0
    4.8000    0.0000    0.0000 H   0  0  0  0  0  0  0  0  0  0  0  0
    4.0000   -1.3857    0.0000 H   0  0  0  0  0  0  0  0  0  0  0  0
    4.0000    1.3857    0.0000 H   0  0  0  0  0  0  0  0  0  0  0  0
    1.6000   -1.6000    0.0000 H   0  0  0  0  0  0  0  0  0  0  0  0
    1.6000    1.6000    0.0000 H   0  0  0  0  0  0  0  0  0  0  0  0
    0.0001   -1.6000    0.0000 H   0  0  0  0  0  0  0  0  0  0  0  0
    0.0001    1.6000    0.0000 C   0  0  0  0  0  0  0  0  0  0  0  0
    1.1314    2.7314    0.0000 O   0  0  0  0  0  0  0  0  0  0  0  0
  1  2  1  0  0  0  0
  2  3  1  0  0  0  0
  3  4  1  0  0  0  0
  3  5  1  0  0  0  0
  3  6  1  0  0  0  0
  2  7  1  0  0  0  0
  2  8  1  0  0  0  0
  8  9  1  0  0  0  0
  9 10  1  0  0  0  0
 10 11  1  0  0  0  0
 10 12  1  0  0  0  0
 10 13  1  0  0  0  0
  9 14  1  0  0  0  0
  9 15  1  0  0  0  0
  8 16  1  0  0  0  0
  8 17  1  0  0  0  0
 17  1  1  0  0  0  0
 17 18  2  0  0  0  0
M  END
> <CAS>
114592-79-9

> <NAME>
2-Oxetanone, 3-ethyl-4-methyl-, (3S-trans)-

> <preferred_name>


> <iupac>


> <SMILES>
C[C@@H]1OC(=O)[C@H]1CC

> <Canonical_QSARr>
CC1OC(=O)C1CC

> <InChI_Code_QSARr>
InChI=1S/C6H10O2/c1-3-5-4(2)8-6(5)7/h4-5H,3H2,1-2H3

> <InChI Key_QSARr>
PAIRTJOPUAQMRQ-UHFFFAOYSA-N

> <Salt_Solvent>
?

> <WS Temperature>
20

> <WS Reference>
BEILSTEIN

> <dsstox_substance_id>


> <LogMolar>
-0.6665

$$$$
115178-76-2
  -INDIGO-01081615412D

 38 39  0  0  0  0  0  0  0  0999 V2000
   -0.7512    1.4127    0.0000 C   0  0  0  0  0  0  0  0  0  0  0  0
   -2.3501    1.4685    0.0000 O   0  0  0  0  0  0  0  0  0  0  0  0
   -3.1014    2.8813    0.0000 C   0  0  0  0  0  0  0  0  0  0  0  0
   -3.8524    4.2940    0.0000 H   0  0  0  0  0  0  0  0  0  0  0  0
   -4.7004    2.9371    0.0000 H   0  0  0  0  0  0  0  0  0  0  0  0
   -2.2534    4.2382    0.0000 H   0  0  0  0  0  0  0  0  0  0  0  0
    0.0968    2.7696    0.0000 O   0  0  0  0  0  0  0  0  0  0  0  0
    0.0001    0.0000    0.0000 C   0  0  0  0  0  0  0  0  0  0  0  0
   -1.1889   -1.0706    0.0000 C   0  0  0  0  0  0  0  0  0  0  0  0
   -2.1295    0.2238    0.0000 H   0  0  0  0  0  0  0  0  0  0  0  0
   -2.5747   -1.8706    0.0000 H   0  0  0  0  0  0  0  0  0  0  0  0
   -0.5383   -2.5323    0.0000 C   0  0  0  0  0  0  0  0  0  0  0  0
   -2.0598   -3.0266    0.0000 H   0  0  0  0  0  0  0  0  0  0  0  0
   -0.2055   -4.0973    0.0000 H   0  0  0  0  0  0  0  0  0  0  0  0
    1.0529   -2.3650    0.0000 C   0  0  0  0  0  0  0  0  0  0  0  0
    1.0529   -3.9650    0.0000 H   0  0  0  0  0  0  0  0  0  0  0  0
    2.6441   -2.5323    0.0000 H   0  0  0  0  0  0  0  0  0  0  0  0
    1.3857   -0.8000    0.0000 N   0  0  0  0  0  0  0  0  0  0  0  0
    2.8474   -0.1493    0.0000 C   0  0  0  0  0  0  0  0  0  0  0  0
    4.2853   -0.8507    0.0000 C   0  0  0  0  0  0  0  0  0  0  0  0
    5.7235   -1.5521    0.0000 O   0  0  0  0  0  0  0  0  0  0  0  0
    7.0500   -0.6572    0.0000 C   0  0  0  0  0  0  0  0  0  0  0  0
    8.4879   -1.3588    0.0000 C   0  0  0  0  0  0  0  0  0  0  0  0
    8.5996   -2.9548    0.0000 C   0  0  0  0  0  0  0  0  0  0  0  0
    7.2730   -3.8495    0.0000 H   0  0  0  0  0  0  0  0  0  0  0  0
   10.0377   -3.6562    0.0000 C   0  0  0  0  0  0  0  0  0  0  0  0
   10.1494   -5.2523    0.0000 H   0  0  0  0  0  0  0  0  0  0  0  0
   11.3640   -2.7615    0.0000 C   0  0  0  0  0  0  0  0  0  0  0  0
   12.8022   -3.4629    0.0000 H   0  0  0  0  0  0  0  0  0  0  0  0
   11.2526   -1.1653    0.0000 C   0  0  0  0  0  0  0  0  0  0  0  0
   12.5789   -0.2706    0.0000 H   0  0  0  0  0  0  0  0  0  0  0  0
    9.8145   -0.4639    0.0000 C   0  0  0  0  0  0  0  0  0  0  0  0
    9.7028    1.1321    0.0000 H   0  0  0  0  0  0  0  0  0  0  0  0
    6.9384    0.9388    0.0000 O   0  0  0  0  0  0  0  0  0  0  0  0
    4.9869    0.5875    0.0000 H   0  0  0  0  0  0  0  0  0  0  0  0
    3.5839   -2.2887    0.0000 H   0  0  0  0  0  0  0  0  0  0  0  0
    3.0145    1.4420    0.0000 O   0  0  0  0  0  0  0  0  0  0  0  0
    0.9405    1.2944    0.0000 H   0  0  0  0  0  0  0  0  0  0  0  0
  1  2  1  0  0  0  0
  2  3  1  0  0  0  0
  3  4  1  0  0  0  0
  3  5  1  0  0  0  0
  3  6  1  0  0  0  0
  1  7  2  0  0  0  0
  1  8  1  0  0  0  0
  8  9  1  0  0  0  0
  9 10  1  0  0  0  0
  9 11  1  0  0  0  0
  9 12  1  0  0  0  0
 12 13  1  0  0  0  0
 12 14  1  0  0  0  0
 12 15  1  0  0  0  0
 15 16  1  0  0  0  0
 15 17  1  0  0  0  0
 15 18  1  0  0  0  0
 18  8  1  0  0  0  0
 18 19  1  0  0  0  0
 19 20  1  0  0  0  0
 20 21  1  0  0  0  0
 21 22  1  0  0  0  0
 22 23  1  0  0  0  0
 23 24  4  0  0  0  0
 24 25  1  0  0  0  0
 24 26  4  0  0  0  0
 26 27  1  0  0  0  0
 26 28  4  0  0  0  0
 28 29  1  0  0  0  0
 28 30  4  0  0  0  0
 30 31  1  0  0  0  0
 30 32  4  0  0  0  0
 32 23  4  0  0  0  0
 32 33  1  0  0  0  0
 22 34  2  0  0  0  0
 20 35  1  0  0  0  0
 20 36  1  0  0  0  0
 19 37  2  0  0  0  0
  8 38  1  0  0  0  0
M  END
> <CAS>
115178-76-2

> <NAME>
L-PROLINE, N-[(BENZOYLOXY)ACETYL]-, METHYL ESTER

> <preferred_name>


> <iupac>


> <SMILES>
COC(=O)[C@@H]1CCCN1C(=O)COC(=O)c1ccccc1

> <Canonical_QSARr>
COC(=O)C1CCCN1C(=O)COC(=O)c1ccccc1

> <InChI_Code_QSARr>
InChI=1S/C15H17NO5/c1-20-15(19)12-8-5-9-16(12)13(17)10-21-14(18)11-6-3-2-4-7-11/h2-4,6-7,12H,5,8-10H2,1H3

> <InChI Key_QSARr>
UQIKOYWGLUXMNE-UHFFFAOYSA-N

> <Salt_Solvent>
?

> <WS Temperature>
22

> <WS Reference>
NIELSEN,NM & BUNDGAARD,H (1988)

> <dsstox_substance_id>


> <LogMolar>
-2.0841

$$$$
115193-27-6
  -INDIGO-01081615412D

 31 31  0  0  0  0  0  0  0  0999 V2000
   -2.7713    0.0001    0.0000 C   0  0  0  0  0  0  0  0  0  0  0  0
   -4.1570   -0.8000    0.0000 C   0  0  0  0  0  0  0  0  0  0  0  0
   -5.5425   -1.5999    0.0000 O   0  0  0  0  0  0  0  0  0  0  0  0
   -6.9282   -0.8000    0.0000 C   0  0  0  0  0  0  0  0  0  0  0  0
   -8.3139   -1.5999    0.0000 C   0  0  0  0  0  0  0  0  0  0  0  0
   -9.6996   -0.8000    0.0000 C   0  0  0  0  0  0  0  0  0  0  0  0
   -9.6996    0.8000    0.0000 H   0  0  0  0  0  0  0  0  0  0  0  0
  -11.0851   -1.6001    0.0000 C   0  0  0  0  0  0  0  0  0  0  0  0
  -12.4708   -0.8000    0.0000 H   0  0  0  0  0  0  0  0  0  0  0  0
  -11.0851   -3.2001    0.0000 C   0  0  0  0  0  0  0  0  0  0  0  0
  -12.4708   -4.0000    0.0000 H   0  0  0  0  0  0  0  0  0  0  0  0
   -9.6996   -4.0000    0.0000 C   0  0  0  0  0  0  0  0  0  0  0  0
   -9.6996   -5.6000    0.0000 H   0  0  0  0  0  0  0  0  0  0  0  0
   -8.3139   -3.2001    0.0000 C   0  0  0  0  0  0  0  0  0  0  0  0
   -6.9282   -4.0000    0.0000 H   0  0  0  0  0  0  0  0  0  0  0  0
   -6.9282    0.8000    0.0000 O   0  0  0  0  0  0  0  0  0  0  0  0
   -3.3569   -2.1856    0.0000 H   0  0  0  0  0  0  0  0  0  0  0  0
   -4.9568    0.5856    0.0000 H   0  0  0  0  0  0  0  0  0  0  0  0
   -1.3856   -0.8000    0.0000 N   0  0  0  0  0  0  0  0  0  0  0  0
    0.0001    0.0001    0.0000 C   0  0  0  0  0  0  0  0  0  0  0  0
    1.3856    0.8000    0.0000 C   0  0  0  0  0  0  0  0  0  0  0  0
    2.7713    1.6001    0.0000 H   0  0  0  0  0  0  0  0  0  0  0  0
    2.7713    0.0001    0.0000 H   0  0  0  0  0  0  0  0  0  0  0  0
    1.3856    2.4000    0.0000 H   0  0  0  0  0  0  0  0  0  0  0  0
    0.7999   -1.3856    0.0000 C   0  0  0  0  0  0  0  0  0  0  0  0
    1.6000   -2.7712    0.0000 H   0  0  0  0  0  0  0  0  0  0  0  0
    2.4001   -1.3856    0.0000 H   0  0  0  0  0  0  0  0  0  0  0  0
    0.0001   -2.7712    0.0000 H   0  0  0  0  0  0  0  0  0  0  0  0
   -0.8000    1.3856    0.0000 H   0  0  0  0  0  0  0  0  0  0  0  0
   -1.3856   -2.4000    0.0000 H   0  0  0  0  0  0  0  0  0  0  0  0
   -2.7713    1.6001    0.0000 O   0  0  0  0  0  0  0  0  0  0  0  0
  1  2  1  0  0  0  0
  2  3  1  0  0  0  0
  3  4  1  0  0  0  0
  4  5  1  0  0  0  0
  5  6  4  0  0  0  0
  6  7  1  0  0  0  0
  6  8  4  0  0  0  0
  8  9  1  0  0  0  0
  8 10  4  0  0  0  0
 10 11  1  0  0  0  0
 10 12  4  0  0  0  0
 12 13  1  0  0  0  0
 12 14  4  0  0  0  0
 14  5  4  0  0  0  0
 14 15  1  0  0  0  0
  4 16  2  0  0  0  0
  2 17  1  0  0  0  0
  2 18  1  0  0  0  0
  1 19  1  0  0  0  0
 19 20  1  0  0  0  0
 20 21  1  0  0  0  0
 21 22  1  0  0  0  0
 21 23  1  0  0  0  0
 21 24  1  0  0  0  0
 20 25  1  0  0  0  0
 25 26  1  0  0  0  0
 25 27  1  0  0  0  0
 25 28  1  0  0  0  0
 20 29  1  0  0  0  0
 19 30  1  0  0  0  0
  1 31  2  0  0  0  0
M  END
> <CAS>
115193-27-6

> <NAME>
ACETAMIDE, 2-(BENZOYLOXY)-N-(1-METHYLETHYL)-

> <preferred_name>


> <iupac>


> <SMILES>
CC(C)NC(=O)COC(=O)c1ccccc1

> <Canonical_QSARr>
CC(C)NC(=O)COC(=O)c1ccccc1

> <InChI_Code_QSARr>
InChI=1S/C12H15NO3/c1-9(2)13-11(14)8-16-12(15)10-6-4-3-5-7-10/h3-7,9H,8H2,1-2H3,(H,13,14)

> <InChI Key_QSARr>
FUWATACATASMHP-UHFFFAOYSA-N

> <Salt_Solvent>
?

> <WS Temperature>
22

> <WS Reference>
NIELSEN,NM & BUNDGAARD,H (1988)

> <dsstox_substance_id>


> <LogMolar>
-2.7321

$$$$
117337-19-6
  -INDIGO-01081615412D

 40 42  0  0  0  0  0  0  0  0999 V2000
   13.6190   -0.4841    0.0000 C   0  0  0  0  0  0  0  0  0  0  0  0
   12.0973    0.0103    0.0000 C   0  0  0  0  0  0  0  0  0  0  0  0
   10.5754    0.5047    0.0000 S   0  0  0  0  0  0  0  0  0  0  0  0
    9.3864   -0.5659    0.0000 C   0  0  0  0  0  0  0  0  0  0  0  0
    7.8647   -0.0715    0.0000 C   0  0  0  0  0  0  0  0  0  0  0  0
    7.5320    1.4936    0.0000 H   0  0  0  0  0  0  0  0  0  0  0  0
    6.6758   -1.1421    0.0000 C   0  0  0  0  0  0  0  0  0  0  0  0
    5.1541   -0.6476    0.0000 N   0  0  0  0  0  0  0  0  0  0  0  0
    3.9652   -1.7183    0.0000 C   0  0  0  0  0  0  0  0  0  0  0  0
    4.1323   -3.3095    0.0000 S   0  0  0  0  0  0  0  0  0  0  0  0
    2.6707   -3.9603    0.0000 C   0  0  0  0  0  0  0  0  0  0  0  0
    2.3380   -5.5254    0.0000 O   0  0  0  0  0  0  0  0  0  0  0  0
    1.6000   -2.7713    0.0000 N   0  0  0  0  0  0  0  0  0  0  0  0
    0.0001   -2.7713    0.0000 C   0  0  0  0  0  0  0  0  0  0  0  0
   -0.8000   -1.3856    0.0000 C   0  0  0  0  0  0  0  0  0  0  0  0
    0.0001   -0.0000    0.0000 C   0  0  0  0  0  0  0  0  0  0  0  0
    1.6000   -0.0000    0.0000 C   0  0  0  0  0  0  0  0  0  0  0  0
    3.1035    0.5472    0.0000 H   0  0  0  0  0  0  0  0  0  0  0  0
    1.3222    1.5757    0.0000 H   0  0  0  0  0  0  0  0  0  0  0  0
    2.4001   -1.3856    0.0000 N   0  0  0  0  0  0  0  0  0  0  0  0
    0.2779    1.5757    0.0000 H   0  0  0  0  0  0  0  0  0  0  0  0
   -1.5034    0.5472    0.0000 H   0  0  0  0  0  0  0  0  0  0  0  0
   -2.0257   -0.3571    0.0000 H   0  0  0  0  0  0  0  0  0  0  0  0
   -2.0257   -2.4142    0.0000 H   0  0  0  0  0  0  0  0  0  0  0  0
   -1.5034   -3.3185    0.0000 H   0  0  0  0  0  0  0  0  0  0  0  0
    0.2779   -4.3470    0.0000 H   0  0  0  0  0  0  0  0  0  0  0  0
    7.0085   -2.7071    0.0000 C   0  0  0  0  0  0  0  0  0  0  0  0
    5.8193   -3.7778    0.0000 F   0  0  0  0  0  0  0  0  0  0  0  0
    8.5302   -3.2016    0.0000 C   0  0  0  0  0  0  0  0  0  0  0  0
    8.8629   -4.7666    0.0000 H   0  0  0  0  0  0  0  0  0  0  0  0
    9.7191   -2.1309    0.0000 C   0  0  0  0  0  0  0  0  0  0  0  0
   11.2408   -2.6253    0.0000 Cl  0  0  0  0  0  0  0  0  0  0  0  0
   12.5917    1.5319    0.0000 H   0  0  0  0  0  0  0  0  0  0  0  0
   11.6027   -1.5114    0.0000 H   0  0  0  0  0  0  0  0  0  0  0  0
   14.8080    0.5864    0.0000 O   0  0  0  0  0  0  0  0  0  0  0  0
   16.3296    0.0920    0.0000 C   0  0  0  0  0  0  0  0  0  0  0  0
   17.8513   -0.4024    0.0000 H   0  0  0  0  0  0  0  0  0  0  0  0
   17.5186    1.1626    0.0000 H   0  0  0  0  0  0  0  0  0  0  0  0
   16.6624   -1.4730    0.0000 H   0  0  0  0  0  0  0  0  0  0  0  0
   13.9514   -2.0492    0.0000 O   0  0  0  0  0  0  0  0  0  0  0  0
  1  2  1  0  0  0  0
  2  3  1  0  0  0  0
  3  4  1  0  0  0  0
  4  5  4  0  0  0  0
  5  6  1  0  0  0  0
  5  7  4  0  0  0  0
  7  8  1  0  0  0  0
  8  9  2  0  0  0  0
  9 10  1  0  0  0  0
 10 11  1  0  0  0  0
 11 12  2  0  0  0  0
 11 13  1  0  0  0  0
 13 14  1  0  0  0  0
 14 15  1  0  0  0  0
 15 16  1  0  0  0  0
 16 17  1  0  0  0  0
 17 18  1  0  0  0  0
 17 19  1  0  0  0  0
 17 20  1  0  0  0  0
 20  9  1  0  0  0  0
 20 13  1  0  0  0  0
 16 21  1  0  0  0  0
 16 22  1  0  0  0  0
 15 23  1  0  0  0  0
 15 24  1  0  0  0  0
 14 25  1  0  0  0  0
 14 26  1  0  0  0  0
  7 27  4  0  0  0  0
 27 28  1  0  0  0  0
 27 29  4  0  0  0  0
 29 30  1  0  0  0  0
 29 31  4  0  0  0  0
 31  4  4  0  0  0  0
 31 32  1  0  0  0  0
  2 33  1  0  0  0  0
  2 34  1  0  0  0  0
  1 35  1  0  0  0  0
 35 36  1  0  0  0  0
 36 37  1  0  0  0  0
 36 38  1  0  0  0  0
 36 39  1  0  0  0  0
  1 40  2  0  0  0  0
M  END
> <CAS>
117337-19-6

> <NAME>
Fluthiacet-methyl

> <preferred_name>
Fluthiacet-methyl

> <iupac>
methyl ({2-chloro-4-fluoro-5-[(Z)-(3-oxotetrahydro[1,3,4]thiadiazolo[3,4-a]pyridazin-1-ylidene)amino]phenyl}sulfanyl)acetate

> <SMILES>
COC(=O)CSc1cc(/N=C2\SC(=O)N3CCCCN3\2)c(F)cc1Cl

> <Canonical_QSARr>
COC(=O)CSc1cc(N=C2SC(=O)N3CCCCN32)c(F)cc1Cl

> <InChI_Code_QSARr>
InChI=1S/C15H15ClFN3O3S2/c1-23-13(21)8-24-12-7-11(10(17)6-9(12)16)18-14-19-4-2-3-5-20(19)15(22)25-14/h6-7H,2-5,8H2,1H3/b18-14-

> <InChI Key_QSARr>
ZCNQYNHDVRPZIH-JXAWBTAJSA-N

> <Salt_Solvent>
?

> <WS Temperature>
25

> <WS Reference>
TOMLIN,C (1997)

> <dsstox_substance_id>
DTXSID2032556

> <LogMolar>
-5.6768

$$$$
118343-31-0
  -INDIGO-01081615412D

 21 22  0  0  0  0  0  0  0  0999 V2000
   -1.5216   -0.4944    0.0000 C   0  0  0  0  0  0  0  0  0  0  0  0
   -2.9073    0.3055    0.0000 C   0  0  0  0  0  0  0  0  0  0  0  0
   -2.9073    1.9055    0.0000 H   0  0  0  0  0  0  0  0  0  0  0  0
   -4.2930   -0.4944    0.0000 C   0  0  0  0  0  0  0  0  0  0  0  0
   -5.6786    0.3055    0.0000 H   0  0  0  0  0  0  0  0  0  0  0  0
   -4.2930   -2.0944    0.0000 C   0  0  0  0  0  0  0  0  0  0  0  0
   -5.6786   -2.8944    0.0000 N   0  0  0  0  0  0  0  0  0  0  0  0
   -7.0643   -2.0944    0.0000 H   0  0  0  0  0  0  0  0  0  0  0  0
   -5.6786   -4.4944    0.0000 H   0  0  0  0  0  0  0  0  0  0  0  0
   -2.9073   -2.8944    0.0000 C   0  0  0  0  0  0  0  0  0  0  0  0
   -2.9073   -4.4944    0.0000 H   0  0  0  0  0  0  0  0  0  0  0  0
   -1.5216   -2.0944    0.0000 C   0  0  0  0  0  0  0  0  0  0  0  0
    0.0000   -2.5889    0.0000 C   0  0  0  0  0  0  0  0  0  0  0  0
    0.4944   -4.1105    0.0000 O   0  0  0  0  0  0  0  0  0  0  0  0
    0.9404   -1.2944    0.0000 O   0  0  0  0  0  0  0  0  0  0  0  0
    0.0000    0.0000    0.0000 C   0  0  0  0  0  0  0  0  0  0  0  0
    1.3856    0.8000    0.0000 C   0  0  0  0  0  0  0  0  0  0  0  0
    2.7713    1.6000    0.0000 H   0  0  0  0  0  0  0  0  0  0  0  0
    1.3856    2.4000    0.0000 H   0  0  0  0  0  0  0  0  0  0  0  0
    2.7713    0.0000    0.0000 H   0  0  0  0  0  0  0  0  0  0  0  0
   -0.6507    1.4617    0.0000 H   0  0  0  0  0  0  0  0  0  0  0  0
  1  2  4  0  0  0  0
  2  3  1  0  0  0  0
  2  4  4  0  0  0  0
  4  5  1  0  0  0  0
  4  6  4  0  0  0  0
  6  7  1  0  0  0  0
  7  8  1  0  0  0  0
  7  9  1  0  0  0  0
  6 10  4  0  0  0  0
 10 11  1  0  0  0  0
 10 12  4  0  0  0  0
 12  1  4  0  0  0  0
 12 13  1  0  0  0  0
 13 14  2  0  0  0  0
 13 15  1  0  0  0  0
 15 16  1  0  0  0  0
 16  1  1  0  0  0  0
 16 17  1  0  0  0  0
 17 18  1  0  0  0  0
 17 19  1  0  0  0  0
 17 20  1  0  0  0  0
 16 21  1  0  0  0  0
M  END
> <CAS>
118343-31-0

> <NAME>
1(3H)-Isobenzofuranone, 6-amino-3-methyl-

> <preferred_name>


> <iupac>


> <SMILES>
CC1OC(=O)c2cc(N)ccc21

> <Canonical_QSARr>
CC1OC(=O)c2cc(N)ccc21

> <InChI_Code_QSARr>
InChI=1S/C9H9NO2/c1-5-7-3-2-6(10)4-8(7)9(11)12-5/h2-5H,10H2,1H3

> <InChI Key_QSARr>
AJZKMDAYNXJZOR-UHFFFAOYSA-N

> <Salt_Solvent>
?

> <WS Temperature>
25

> <WS Reference>
BEILSTEIN

> <dsstox_substance_id>


> <LogMolar>
-1.7891

$$$$
118993-61-6
  -INDIGO-01081615412D

 30 31  0  0  0  0  0  0  0  0999 V2000
    4.1977   -3.2239    0.0000 O   0  0  0  0  0  0  0  0  0  0  0  0
    5.2260   -1.9983    0.0000 C   0  0  0  0  0  0  0  0  0  0  0  0
    6.8222   -2.1099    0.0000 S   0  0  0  0  0  0  0  0  0  0  0  0
    6.7106   -3.7060    0.0000 O   0  0  0  0  0  0  0  0  0  0  0  0
    8.4182   -2.2214    0.0000 N   0  0  0  0  0  0  0  0  0  0  0  0
    9.1197   -3.6595    0.0000 H   0  0  0  0  0  0  0  0  0  0  0  0
    9.3129   -0.8951    0.0000 H   0  0  0  0  0  0  0  0  0  0  0  0
    6.9338   -0.5137    0.0000 O   0  0  0  0  0  0  0  0  0  0  0  0
    4.3781   -0.6413    0.0000 C   0  0  0  0  0  0  0  0  0  0  0  0
    4.9775    0.8421    0.0000 H   0  0  0  0  0  0  0  0  0  0  0  0
    2.8257   -1.0285    0.0000 C   0  0  0  0  0  0  0  0  0  0  0  0
    1.6001    0.0000    0.0000 C   0  0  0  0  0  0  0  0  0  0  0  0
    0.0001    0.0000    0.0000 C   0  0  0  0  0  0  0  0  0  0  0  0
   -0.7999    1.3856    0.0000 C   0  0  0  0  0  0  0  0  0  0  0  0
    0.0001    2.7713    0.0000 H   0  0  0  0  0  0  0  0  0  0  0  0
   -2.3999    1.3856    0.0000 C   0  0  0  0  0  0  0  0  0  0  0  0
   -3.2000    2.7713    0.0000 H   0  0  0  0  0  0  0  0  0  0  0  0
   -3.2000    0.0000    0.0000 C   0  0  0  0  0  0  0  0  0  0  0  0
   -4.8000    0.0000    0.0000 O   0  0  0  0  0  0  0  0  0  0  0  0
   -5.6000    1.3856    0.0000 C   0  0  0  0  0  0  0  0  0  0  0  0
   -7.2000    1.3856    0.0000 H   0  0  0  0  0  0  0  0  0  0  0  0
   -6.4000    2.7713    0.0000 H   0  0  0  0  0  0  0  0  0  0  0  0
   -6.4000    0.0000    0.0000 H   0  0  0  0  0  0  0  0  0  0  0  0
   -2.3999   -1.3857    0.0000 C   0  0  0  0  0  0  0  0  0  0  0  0
   -3.2000   -2.7713    0.0000 H   0  0  0  0  0  0  0  0  0  0  0  0
   -0.7999   -1.3857    0.0000 C   0  0  0  0  0  0  0  0  0  0  0  0
    0.0001   -2.7713    0.0000 H   0  0  0  0  0  0  0  0  0  0  0  0
    2.1471    1.5035    0.0000 O   0  0  0  0  0  0  0  0  0  0  0  0
    2.7141   -2.6246    0.0000 C   0  0  0  0  0  0  0  0  0  0  0  0
    1.3572   -3.4724    0.0000 H   0  0  0  0  0  0  0  0  0  0  0  0
  1  2  4  0  0  0  0
  2  3  1  0  0  0  0
  3  4  2  0  0  0  0
  3  5  1  0  0  0  0
  5  6  1  0  0  0  0
  5  7  1  0  0  0  0
  3  8  2  0  0  0  0
  2  9  4  0  0  0  0
  9 10  1  0  0  0  0
  9 11  4  0  0  0  0
 11 12  1  0  0  0  0
 12 13  1  0  0  0  0
 13 14  4  0  0  0  0
 14 15  1  0  0  0  0
 14 16  4  0  0  0  0
 16 17  1  0  0  0  0
 16 18  4  0  0  0  0
 18 19  1  0  0  0  0
 19 20  1  0  0  0  0
 20 21  1  0  0  0  0
 20 22  1  0  0  0  0
 20 23  1  0  0  0  0
 18 24  4  0  0  0  0
 24 25  1  0  0  0  0
 24 26  4  0  0  0  0
 26 13  4  0  0  0  0
 26 27  1  0  0  0  0
 12 28  2  0  0  0  0
 11 29  4  0  0  0  0
 29  1  4  0  0  0  0
 29 30  1  0  0  0  0
M  END
> <CAS>
118993-61-6

> <NAME>
2-FURANSULFONAMIDE, 4-(4-METHOXYBENZOYL)-

> <preferred_name>


> <iupac>


> <SMILES>
COc1ccc(cc1)C(=O)c1coc(c1)S(N)(=O)=O

> <Canonical_QSARr>
COc1ccc(cc1)C(=O)c1coc(c1)S(N)(=O)=O

> <InChI_Code_QSARr>
InChI=1S/C12H11NO5S/c1-17-10-4-2-8(3-5-10)12(14)9-6-11(18-7-9)19(13,15)16/h2-7H,1H3,(H2,13,15,16)

> <InChI Key_QSARr>
OIEIIZQFSICKJF-UHFFFAOYSA-N

> <Salt_Solvent>
?

> <WS Temperature>
25

> <WS Reference>
HARTMAN,GD ET AL. (1992)

> <dsstox_substance_id>


> <LogMolar>
-4.1481

$$$$
119446-68-3
  -INDIGO-01081615412D

 44 47  0  0  0  0  0  0  0  0999 V2000
   -0.0001    0.0001    0.0000 C   0  0  0  0  0  0  0  0  0  0  0  0
   -1.5651   -0.3327    0.0000 O   0  0  0  0  0  0  0  0  0  0  0  0
   -1.7324   -1.9238    0.0000 C   0  0  0  0  0  0  0  0  0  0  0  0
   -3.2973   -1.5913    0.0000 H   0  0  0  0  0  0  0  0  0  0  0  0
   -2.4835   -3.3367    0.0000 H   0  0  0  0  0  0  0  0  0  0  0  0
   -0.2705   -2.5746    0.0000 C   0  0  0  0  0  0  0  0  0  0  0  0
   -0.5485   -4.1504    0.0000 C   0  0  0  0  0  0  0  0  0  0  0  0
   -0.8263   -5.7261    0.0000 H   0  0  0  0  0  0  0  0  0  0  0  0
    0.6773   -5.1788    0.0000 H   0  0  0  0  0  0  0  0  0  0  0  0
   -2.0519   -4.6976    0.0000 H   0  0  0  0  0  0  0  0  0  0  0  0
    1.0238   -3.5151    0.0000 H   0  0  0  0  0  0  0  0  0  0  0  0
    0.7999   -1.3857    0.0000 O   0  0  0  0  0  0  0  0  0  0  0  0
   -0.7512    1.4127    0.0000 C   0  0  0  0  0  0  0  0  0  0  0  0
   -1.5023    2.8254    0.0000 N   0  0  0  1  0  0  0  0  0  0  0  0
   -3.0868    3.0482    0.0000 C   0  0  0  0  0  0  0  0  0  0  0  0
   -4.1982    1.8972    0.0000 H   0  0  0  0  0  0  0  0  0  0  0  0
   -3.3646    4.6238    0.0000 N   0  0  0  1  0  0  0  0  0  0  0  0
   -1.9518    5.3750    0.0000 C   0  0  0  0  0  0  0  0  0  0  0  0
   -1.7292    6.9594    0.0000 H   0  0  0  0  0  0  0  0  0  0  0  0
   -0.8009    4.2636    0.0000 N   0  0  0  1  0  0  0  0  0  0  0  0
    0.6615    2.1639    0.0000 H   0  0  0  0  0  0  0  0  0  0  0  0
   -2.1639    0.6615    0.0000 H   0  0  0  0  0  0  0  0  0  0  0  0
    1.4618    0.6508    0.0000 C   0  0  0  0  0  0  0  0  0  0  0  0
    2.7561   -0.2897    0.0000 C   0  0  0  0  0  0  0  0  0  0  0  0
    2.5888   -1.8808    0.0000 H   0  0  0  0  0  0  0  0  0  0  0  0
    4.2178    0.3611    0.0000 C   0  0  0  0  0  0  0  0  0  0  0  0
    5.5123   -0.5793    0.0000 H   0  0  0  0  0  0  0  0  0  0  0  0
    4.3851    1.9524    0.0000 C   0  0  0  0  0  0  0  0  0  0  0  0
    5.8467    2.6031    0.0000 O   0  0  0  0  0  0  0  0  0  0  0  0
    7.3847    2.1620    0.0000 C   0  0  0  0  0  0  0  0  0  0  0  0
    7.7718    0.6096    0.0000 C   0  0  0  0  0  0  0  0  0  0  0  0
    6.6208   -0.5019    0.0000 H   0  0  0  0  0  0  0  0  0  0  0  0
    9.3098    0.1687    0.0000 C   0  0  0  0  0  0  0  0  0  0  0  0
    9.6968   -1.3840    0.0000 H   0  0  0  0  0  0  0  0  0  0  0  0
   10.4608    1.2801    0.0000 C   0  0  0  0  0  0  0  0  0  0  0  0
   11.9988    0.8390    0.0000 Cl  0  0  0  0  0  0  0  0  0  0  0  0
   10.0737    2.8325    0.0000 C   0  0  0  0  0  0  0  0  0  0  0  0
   11.2247    3.9440    0.0000 H   0  0  0  0  0  0  0  0  0  0  0  0
    8.5357    3.2735    0.0000 C   0  0  0  0  0  0  0  0  0  0  0  0
    8.1487    4.8261    0.0000 H   0  0  0  0  0  0  0  0  0  0  0  0
    3.0905    2.8927    0.0000 C   0  0  0  0  0  0  0  0  0  0  0  0
    3.2578    4.4840    0.0000 H   0  0  0  0  0  0  0  0  0  0  0  0
    1.6289    2.2420    0.0000 C   0  0  0  0  0  0  0  0  0  0  0  0
    0.3345    3.1825    0.0000 Cl  0  0  0  0  0  0  0  0  0  0  0  0
  1  2  1  0  0  0  0
  2  3  1  0  0  0  0
  3  4  1  0  0  0  0
  3  5  1  0  0  0  0
  3  6  1  0  0  0  0
  6  7  1  0  0  0  0
  7  8  1  0  0  0  0
  7  9  1  0  0  0  0
  7 10  1  0  0  0  0
  6 11  1  0  0  0  0
  6 12  1  0  0  0  0
 12  1  1  0  0  0  0
  1 13  1  0  0  0  0
 13 14  1  0  0  0  0
 14 15  4  0  0  0  0
 15 16  1  0  0  0  0
 15 17  4  0  0  0  0
 17 18  4  0  0  0  0
 18 19  1  0  0  0  0
 18 20  4  0  0  0  0
 20 14  4  0  0  0  0
 13 21  1  0  0  0  0
 13 22  1  0  0  0  0
  1 23  1  0  0  0  0
 23 24  4  0  0  0  0
 24 25  1  0  0  0  0
 24 26  4  0  0  0  0
 26 27  1  0  0  0  0
 26 28  4  0  0  0  0
 28 29  1  0  0  0  0
 29 30  1  0  0  0  0
 30 31  4  0  0  0  0
 31 32  1  0  0  0  0
 31 33  4  0  0  0  0
 33 34  1  0  0  0  0
 33 35  4  0  0  0  0
 35 36  1  0  0  0  0
 35 37  4  0  0  0  0
 37 38  1  0  0  0  0
 37 39  4  0  0  0  0
 39 30  4  0  0  0  0
 39 40  1  0  0  0  0
 28 41  4  0  0  0  0
 41 42  1  0  0  0  0
 41 43  4  0  0  0  0
 43 23  4  0  0  0  0
 43 44  1  0  0  0  0
M  END
> <CAS>
119446-68-3

> <NAME>
Difenoconazole

> <preferred_name>
Difenoconazole

> <iupac>
1-({2-[2-chloro-4-(4-chlorophenoxy)phenyl]-4-methyl-1,3-dioxolan-2-yl}methyl)-1H-1,2,4-triazole

> <SMILES>
CC1COC(C[n]2c[n]c[n]2)(O1)c1ccc(cc1Cl)Oc1ccc(Cl)cc1

> <Canonical_QSARr>
CC1COC(C[n]2c[n]c[n]2)(O1)c1ccc(cc1Cl)Oc1ccc(Cl)cc1

> <InChI_Code_QSARr>
InChI=1S/C19H17Cl2N3O3/c1-13-9-25-19(27-13,10-24-12-22-11-23-24)17-7-6-16(8-18(17)21)26-15-4-2-14(20)3-5-15/h2-8,11-13H,9-10H2,1H3

> <InChI Key_QSARr>
BQYJATMQXGBDHF-UHFFFAOYSA-N

> <Salt_Solvent>
?

> <WS Temperature>
25

> <WS Reference>
TOMLIN,C (1997)

> <dsstox_substance_id>
DTXSID4032372

> <LogMolar>
-4.4327

$$$$
120738-89-8
  -INDIGO-01081615412D

 33 33  0  0  0  0  0  0  0  0999 V2000
   -0.0001    4.8000    0.0000 O   0  0  0  0  0  0  0  0  0  0  0  0
   -1.3857    4.0000    0.0000 N   0  0  0  0  0  0  0  0  0  0  0  0
   -1.3857    2.4000    0.0000 C   0  0  0  0  0  0  0  0  0  0  0  0
   -0.0001    1.6000    0.0000 C   0  0  0  0  0  0  0  0  0  0  0  0
    1.3857    2.4000    0.0000 N   0  0  0  0  0  0  0  0  0  0  0  0
    2.9613    2.1222    0.0000 C   0  0  0  0  0  0  0  0  0  0  0  0
    4.5370    1.8444    0.0000 H   0  0  0  0  0  0  0  0  0  0  0  0
    3.9898    3.3478    0.0000 H   0  0  0  0  0  0  0  0  0  0  0  0
    3.5085    0.6187    0.0000 H   0  0  0  0  0  0  0  0  0  0  0  0
    1.3857    4.0000    0.0000 H   0  0  0  0  0  0  0  0  0  0  0  0
   -0.0001    0.0000    0.0000 N   0  0  0  0  0  0  0  0  0  0  0  0
    1.3857   -0.8000    0.0000 C   0  0  0  0  0  0  0  0  0  0  0  0
    2.7713   -1.6000    0.0000 C   0  0  0  0  0  0  0  0  0  0  0  0
    4.1569   -2.4001    0.0000 H   0  0  0  0  0  0  0  0  0  0  0  0
    4.1569   -0.8000    0.0000 H   0  0  0  0  0  0  0  0  0  0  0  0
    2.7713   -3.2000    0.0000 H   0  0  0  0  0  0  0  0  0  0  0  0
    2.1857    0.5856    0.0000 H   0  0  0  0  0  0  0  0  0  0  0  0
    0.5856   -2.1856    0.0000 H   0  0  0  0  0  0  0  0  0  0  0  0
   -1.3857   -0.8000    0.0000 C   0  0  0  0  0  0  0  0  0  0  0  0
   -2.7713   -1.6000    0.0000 C   0  0  0  0  0  0  0  0  0  0  0  0
   -4.1568   -0.8000    0.0000 C   0  0  0  0  0  0  0  0  0  0  0  0
   -4.1568    0.8000    0.0000 H   0  0  0  0  0  0  0  0  0  0  0  0
   -5.5426   -1.6000    0.0000 C   0  0  0  0  0  0  0  0  0  0  0  0
   -6.9282   -0.8000    0.0000 H   0  0  0  0  0  0  0  0  0  0  0  0
   -5.5426   -3.2000    0.0000 C   0  0  0  0  0  0  0  0  0  0  0  0
   -6.9282   -4.0000    0.0000 Cl  0  0  0  0  0  0  0  0  0  0  0  0
   -4.1568   -4.0000    0.0000 N   0  0  0  1  0  0  0  0  0  0  0  0
   -2.7713   -3.2000    0.0000 C   0  0  0  0  0  0  0  0  0  0  0  0
   -1.3857   -4.0000    0.0000 H   0  0  0  0  0  0  0  0  0  0  0  0
   -0.5856   -2.1856    0.0000 H   0  0  0  0  0  0  0  0  0  0  0  0
   -2.1857    0.5856    0.0000 H   0  0  0  0  0  0  0  0  0  0  0  0
   -2.7713    1.6000    0.0000 H   0  0  0  0  0  0  0  0  0  0  0  0
   -2.7713    4.8000    0.0000 O   0  0  0  0  0  0  0  0  0  0  0  0
  1  2  1  0  0  0  0
  2  3  1  0  0  0  0
  3  4  2  0  0  0  0
  4  5  1  0  0  0  0
  5  6  1  0  0  0  0
  6  7  1  0  0  0  0
  6  8  1  0  0  0  0
  6  9  1  0  0  0  0
  5 10  1  0  0  0  0
  4 11  1  0  0  0  0
 11 12  1  0  0  0  0
 12 13  1  0  0  0  0
 13 14  1  0  0  0  0
 13 15  1  0  0  0  0
 13 16  1  0  0  0  0
 12 17  1  0  0  0  0
 12 18  1  0  0  0  0
 11 19  1  0  0  0  0
 19 20  1  0  0  0  0
 20 21  4  0  0  0  0
 21 22  1  0  0  0  0
 21 23  4  0  0  0  0
 23 24  1  0  0  0  0
 23 25  4  0  0  0  0
 25 26  1  0  0  0  0
 25 27  4  0  0  0  0
 27 28  4  0  0  0  0
 28 20  4  0  0  0  0
 28 29  1  0  0  0  0
 19 30  1  0  0  0  0
 19 31  1  0  0  0  0
  3 32  1  0  0  0  0
  2 33  2  0  0  0  0
M  CHG  2   1  -1   2   1
M  END
> <CAS>
120738-89-8

> <NAME>
NITENPYRAM

> <preferred_name>
Nitenpyram

> <iupac>
C11H15ClN4O2

> <SMILES>
CCN(Cc1c[n]c(Cl)cc1)C(=C[N+]([O-])=O)NC

> <Canonical_QSARr>
CCN(Cc1c[n]c(Cl)cc1)C(=C[N+]([O-])=O)NC

> <InChI_Code_QSARr>
InChI=1S/C11H15ClN4O2/c1-3-15(11(13-2)8-16(17)18)7-9-4-5-10(12)14-6-9/h4-6,8,13H,3,7H2,1-2H3/b11-8+

> <InChI Key_QSARr>
CFRPSFYHXJZSBI-DHZHZOJOSA-N

> <Salt_Solvent>
?

> <WS Temperature>
20

> <WS Reference>
TOMLIN,C (1997); pH 7

> <dsstox_substance_id>
DTXSID3058292

> <LogMolar>
0.4918

$$$$
121776-33-8
  -INDIGO-01081615412D

 30 31  0  0  0  0  0  0  0  0999 V2000
   -0.7999    1.3856    0.0000 N   0  0  0  0  0  0  0  0  0  0  0  0
   -0.6884    2.9818    0.0000 C   0  0  0  0  0  0  0  0  0  0  0  0
   -2.0148    3.8765    0.0000 C   0  0  0  0  0  0  0  0  0  0  0  0
   -1.9033    5.4726    0.0000 Cl  0  0  0  0  0  0  0  0  0  0  0  0
   -3.3414    4.7712    0.0000 Cl  0  0  0  0  0  0  0  0  0  0  0  0
   -0.5767    4.5779    0.0000 H   0  0  0  0  0  0  0  0  0  0  0  0
    0.7497    3.6832    0.0000 O   0  0  0  0  0  0  0  0  0  0  0  0
   -2.3651    1.0530    0.0000 C   0  0  0  0  0  0  0  0  0  0  0  0
   -2.5323    2.6442    0.0000 H   0  0  0  0  0  0  0  0  0  0  0  0
   -3.9650    1.0530    0.0000 H   0  0  0  0  0  0  0  0  0  0  0  0
   -2.5323   -0.5383    0.0000 C   0  0  0  0  0  0  0  0  0  0  0  0
   -4.1313   -0.4825    0.0000 C   0  0  0  0  0  0  0  0  0  0  0  0
   -5.1164   -1.7433    0.0000 C   0  0  0  0  0  0  0  0  0  0  0  0
   -4.6754   -3.2813    0.0000 H   0  0  0  0  0  0  0  0  0  0  0  0
   -6.6199   -1.1960    0.0000 C   0  0  0  0  0  0  0  0  0  0  0  0
   -7.9463   -2.0907    0.0000 H   0  0  0  0  0  0  0  0  0  0  0  0
   -6.5641    0.4030    0.0000 C   0  0  0  0  0  0  0  0  0  0  0  0
   -7.8248    1.3881    0.0000 H   0  0  0  0  0  0  0  0  0  0  0  0
   -5.0260    0.8441    0.0000 O   0  0  0  0  0  0  0  0  0  0  0  0
   -3.0267   -2.0600    0.0000 H   0  0  0  0  0  0  0  0  0  0  0  0
   -1.0705   -1.1891    0.0000 O   0  0  0  0  0  0  0  0  0  0  0  0
   -0.0001    0.0000    0.0000 C   0  0  0  0  0  0  0  0  0  0  0  0
    1.0706   -1.1891    0.0000 C   0  0  0  0  0  0  0  0  0  0  0  0
    2.1412   -2.3780    0.0000 H   0  0  0  0  0  0  0  0  0  0  0  0
    2.6356   -0.8563    0.0000 H   0  0  0  0  0  0  0  0  0  0  0  0
    0.5763   -2.7108    0.0000 H   0  0  0  0  0  0  0  0  0  0  0  0
    1.2945    0.9405    0.0000 C   0  0  0  0  0  0  0  0  0  0  0  0
    2.5889    1.8809    0.0000 H   0  0  0  0  0  0  0  0  0  0  0  0
    1.4060    2.5366    0.0000 H   0  0  0  0  0  0  0  0  0  0  0  0
    2.7561    0.2897    0.0000 H   0  0  0  0  0  0  0  0  0  0  0  0
  1  2  1  0  0  0  0
  2  3  1  0  0  0  0
  3  4  1  0  0  0  0
  3  5  1  0  0  0  0
  3  6  1  0  0  0  0
  2  7  2  0  0  0  0
  1  8  1  0  0  0  0
  8  9  1  0  0  0  0
  8 10  1  0  0  0  0
  8 11  1  0  0  0  0
 11 12  1  0  0  0  0
 12 13  4  0  0  0  0
 13 14  1  0  0  0  0
 13 15  4  0  0  0  0
 15 16  1  0  0  0  0
 15 17  4  0  0  0  0
 17 18  1  0  0  0  0
 17 19  4  0  0  0  0
 19 12  4  0  0  0  0
 11 20  1  0  0  0  0
 11 21  1  0  0  0  0
 21 22  1  0  0  0  0
 22  1  1  0  0  0  0
 22 23  1  0  0  0  0
 23 24  1  0  0  0  0
 23 25  1  0  0  0  0
 23 26  1  0  0  0  0
 22 27  1  0  0  0  0
 27 28  1  0  0  0  0
 27 29  1  0  0  0  0
 27 30  1  0  0  0  0
M  END
> <CAS>
121776-33-8

> <NAME>
Furilazole

> <preferred_name>
Furilazole

> <iupac>
2,2-dichloro-1-[5-(furan-2-yl)-2,2-dimethyl-1,3-oxazolidin-3-yl]ethanone

> <SMILES>
CC1(C)OC(CN1C(=O)C(Cl)Cl)c1ccco1

> <Canonical_QSARr>
CC1(C)OC(CN1C(=O)C(Cl)Cl)c1ccco1

> <InChI_Code_QSARr>
InChI=1S/C11H13Cl2NO3/c1-11(2)14(10(15)9(12)13)6-8(17-11)7-4-3-5-16-7/h3-5,8-9H,6H2,1-2H3

> <InChI Key_QSARr>
MCNOFYBITGAAGM-UHFFFAOYSA-N

> <Salt_Solvent>
?

> <WS Temperature>
20

> <WS Reference>
TOMLIN,C (1997)

> <dsstox_substance_id>
DTXSID4041999

> <LogMolar>
-3.1498

$$$$
123202-89-1
  -INDIGO-01081615412D

 30 31  0  0  0  0  0  0  0  0999 V2000
    2.7713    1.6000    0.0000 N   0  0  0  0  0  0  0  0  0  0  0  0
    1.3856    2.4000    0.0000 C   0  0  0  0  0  0  0  0  0  0  0  0
    2.4142    3.6257    0.0000 H   0  0  0  0  0  0  0  0  0  0  0  0
    0.3572    3.6257    0.0000 H   0  0  0  0  0  0  0  0  0  0  0  0
   -0.0000    1.6000    0.0000 C   0  0  0  0  0  0  0  0  0  0  0  0
   -0.5473    3.1035    0.0000 H   0  0  0  0  0  0  0  0  0  0  0  0
   -1.5757    1.3222    0.0000 H   0  0  0  0  0  0  0  0  0  0  0  0
   -0.0000   -0.0000    0.0000 C   0  0  0  0  0  0  0  0  0  0  0  0
   -1.5757    0.2778    0.0000 O   0  0  0  0  0  0  0  0  0  0  0  0
   -2.6041   -0.9478    0.0000 C   0  0  0  0  0  0  0  0  0  0  0  0
   -4.1799   -0.6700    0.0000 C   0  0  0  0  0  0  0  0  0  0  0  0
   -4.7270    0.8335    0.0000 C   0  0  0  0  0  0  0  0  0  0  0  0
   -3.6986    2.0592    0.0000 H   0  0  0  0  0  0  0  0  0  0  0  0
   -6.3029    1.1114    0.0000 C   0  0  0  0  0  0  0  0  0  0  0  0
   -6.8499    2.6148    0.0000 H   0  0  0  0  0  0  0  0  0  0  0  0
   -7.3313   -0.1144    0.0000 C   0  0  0  0  0  0  0  0  0  0  0  0
   -8.9069    0.1635    0.0000 H   0  0  0  0  0  0  0  0  0  0  0  0
   -6.7840   -1.6179    0.0000 C   0  0  0  0  0  0  0  0  0  0  0  0
   -7.8124   -2.8435    0.0000 H   0  0  0  0  0  0  0  0  0  0  0  0
   -5.2083   -1.8957    0.0000 C   0  0  0  0  0  0  0  0  0  0  0  0
   -4.6611   -3.3992    0.0000 H   0  0  0  0  0  0  0  0  0  0  0  0
   -2.0570   -2.4514    0.0000 O   0  0  0  0  0  0  0  0  0  0  0  0
   -0.5473   -1.5035    0.0000 H   0  0  0  0  0  0  0  0  0  0  0  0
    1.3856   -0.8000    0.0000 C   0  0  0  0  0  0  0  0  0  0  0  0
    0.3572   -2.0257    0.0000 H   0  0  0  0  0  0  0  0  0  0  0  0
    2.4142   -2.0257    0.0000 H   0  0  0  0  0  0  0  0  0  0  0  0
    2.7713   -0.0000    0.0000 C   0  0  0  0  0  0  0  0  0  0  0  0
    3.3186   -1.5035    0.0000 H   0  0  0  0  0  0  0  0  0  0  0  0
    4.3470    0.2778    0.0000 H   0  0  0  0  0  0  0  0  0  0  0  0
    4.1569    2.4000    0.0000 H   0  0  0  0  0  0  0  0  0  0  0  0
  1  2  1  0  0  0  0
  2  3  1  0  0  0  0
  2  4  1  0  0  0  0
  2  5  1  0  0  0  0
  5  6  1  0  0  0  0
  5  7  1  0  0  0  0
  5  8  1  0  0  0  0
  8  9  1  0  0  0  0
  9 10  1  0  0  0  0
 10 11  1  0  0  0  0
 11 12  4  0  0  0  0
 12 13  1  0  0  0  0
 12 14  4  0  0  0  0
 14 15  1  0  0  0  0
 14 16  4  0  0  0  0
 16 17  1  0  0  0  0
 16 18  4  0  0  0  0
 18 19  1  0  0  0  0
 18 20  4  0  0  0  0
 20 11  4  0  0  0  0
 20 21  1  0  0  0  0
 10 22  2  0  0  0  0
  8 23  1  0  0  0  0
  8 24  1  0  0  0  0
 24 25  1  0  0  0  0
 24 26  1  0  0  0  0
 24 27  1  0  0  0  0
 27  1  1  0  0  0  0
 27 28  1  0  0  0  0
 27 29  1  0  0  0  0
  1 30  1  0  0  0  0
M  END
> <CAS>
123202-89-1

> <NAME>
4-Piperidinol, benzoate (ester)

> <preferred_name>


> <iupac>


> <SMILES>
O=C(OC1CCNCC1)c1ccccc1

> <Canonical_QSARr>
O=C(OC1CCNCC1)c1ccccc1

> <InChI_Code_QSARr>
InChI=1S/C12H15NO2/c14-12(10-4-2-1-3-5-10)15-11-6-8-13-9-7-11/h1-5,11,13H,6-9H2

> <InChI Key_QSARr>
YNHMMVMSCFNCJS-UHFFFAOYSA-N

> <Salt_Solvent>
?

> <WS Temperature>


> <WS Reference>
BEILSTEIN

> <dsstox_substance_id>


> <LogMolar>
-1.3123

$$$$
123796-70-3
  -INDIGO-01081615412D

 32 32  0  0  0  0  0  0  0  0999 V2000
   -0.0001    1.6000    0.0000 C   0  0  0  0  0  0  0  0  0  0  0  0
   -1.3856    2.4000    0.0000 C   0  0  0  0  0  0  0  0  0  0  0  0
   -1.3856    4.0000    0.0000 H   0  0  0  0  0  0  0  0  0  0  0  0
   -2.7714    1.6000    0.0000 C   0  0  0  0  0  0  0  0  0  0  0  0
   -4.1569    2.4000    0.0000 H   0  0  0  0  0  0  0  0  0  0  0  0
   -2.7712    0.0001    0.0000 C   0  0  0  0  0  0  0  0  0  0  0  0
   -4.1569   -0.8000    0.0000 O   0  0  0  0  0  0  0  0  0  0  0  0
   -5.5425   -0.0001    0.0000 C   0  0  0  0  0  0  0  0  0  0  0  0
   -6.9282    0.8000    0.0000 H   0  0  0  0  0  0  0  0  0  0  0  0
   -6.9282   -0.8000    0.0000 H   0  0  0  0  0  0  0  0  0  0  0  0
   -5.5425    1.6000    0.0000 H   0  0  0  0  0  0  0  0  0  0  0  0
   -1.3856   -0.8000    0.0000 C   0  0  0  0  0  0  0  0  0  0  0  0
   -1.3856   -2.4000    0.0000 O   0  0  0  0  0  0  0  0  0  0  0  0
   -2.7714   -3.1999    0.0000 C   0  0  0  0  0  0  0  0  0  0  0  0
   -2.7714   -4.8000    0.0000 H   0  0  0  0  0  0  0  0  0  0  0  0
   -4.1569   -4.0000    0.0000 H   0  0  0  0  0  0  0  0  0  0  0  0
   -1.3856   -4.0000    0.0000 H   0  0  0  0  0  0  0  0  0  0  0  0
   -0.0001    0.0001    0.0000 C   0  0  0  0  0  0  0  0  0  0  0  0
    1.3856   -0.8000    0.0000 C   0  0  0  0  0  0  0  0  0  0  0  0
    2.7714    0.0001    0.0000 O   0  0  0  0  0  0  0  0  0  0  0  0
    4.1569   -0.8000    0.0000 C   0  0  0  0  0  0  0  0  0  0  0  0
    5.5427   -1.6000    0.0000 C   0  0  0  0  0  0  0  0  0  0  0  0
    6.9282   -2.4000    0.0000 H   0  0  0  0  0  0  0  0  0  0  0  0
    6.9282   -0.8000    0.0000 H   0  0  0  0  0  0  0  0  0  0  0  0
    5.5427   -3.1999    0.0000 H   0  0  0  0  0  0  0  0  0  0  0  0
    4.9570    0.5856    0.0000 H   0  0  0  0  0  0  0  0  0  0  0  0
    3.3569   -2.1857    0.0000 H   0  0  0  0  0  0  0  0  0  0  0  0
    1.3856   -2.4000    0.0000 O   0  0  0  0  0  0  0  0  0  0  0  0
    1.3856    2.4000    0.0000 C   0  0  0  0  0  0  0  0  0  0  0  0
    1.3856    4.0000    0.0000 O   0  0  0  0  0  0  0  0  0  0  0  0
    2.7712    4.8000    0.0000 H   0  0  0  0  0  0  0  0  0  0  0  0
    2.7714    1.6000    0.0000 O   0  0  0  0  0  0  0  0  0  0  0  0
  1  2  4  0  0  0  0
  2  3  1  0  0  0  0
  2  4  4  0  0  0  0
  4  5  1  0  0  0  0
  4  6  4  0  0  0  0
  6  7  1  0  0  0  0
  7  8  1  0  0  0  0
  8  9  1  0  0  0  0
  8 10  1  0  0  0  0
  8 11  1  0  0  0  0
  6 12  4  0  0  0  0
 12 13  1  0  0  0  0
 13 14  1  0  0  0  0
 14 15  1  0  0  0  0
 14 16  1  0  0  0  0
 14 17  1  0  0  0  0
 12 18  4  0  0  0  0
 18  1  4  0  0  0  0
 18 19  1  0  0  0  0
 19 20  1  0  0  0  0
 20 21  1  0  0  0  0
 21 22  1  0  0  0  0
 22 23  1  0  0  0  0
 22 24  1  0  0  0  0
 22 25  1  0  0  0  0
 21 26  1  0  0  0  0
 21 27  1  0  0  0  0
 19 28  2  0  0  0  0
  1 29  1  0  0  0  0
 29 30  1  0  0  0  0
 30 31  1  0  0  0  0
 29 32  2  0  0  0  0
M  END
> <CAS>
123796-70-3

> <NAME>
Phthalic acid, 3,4-dimethoxy-, 2-ethyl ester

> <preferred_name>
PUBCHEM_71340207

> <iupac>
C12H13O6

> <SMILES>
CCOC(=O)c1c(OC)c(ccc1C(O)=O)OC

> <Canonical_QSARr>
CCOC(=O)c1c(OC)c(ccc1C(O)=O)OC

> <InChI_Code_QSARr>
InChI=1S/C12H14O6/c1-4-18-12(15)9-7(11(13)14)5-6-8(16-2)10(9)17-3/h5-6H,4H2,1-3H3,(H,13,14)

> <InChI Key_QSARr>
IXOPRFBLJTZXBZ-UHFFFAOYSA-N

> <Salt_Solvent>
?

> <WS Temperature>


> <WS Reference>
BEILSTEIN

> <dsstox_substance_id>
DTXSID10767455

> <LogMolar>
-2.253

$$$$
125306-83-4
  -INDIGO-01081615412D

 46 47  0  0  0  0  0  0  0  0999 V2000
    8.7526   -2.0928    0.0000 C   0  0  0  0  0  0  0  0  0  0  0  0
    8.5856   -0.5015    0.0000 C   0  0  0  0  0  0  0  0  0  0  0  0
    8.4183    1.0896    0.0000 N   0  0  0  0  0  0  0  0  0  0  0  0
    6.9566    1.7405    0.0000 C   0  0  0  0  0  0  0  0  0  0  0  0
    6.7893    3.3317    0.0000 O   0  0  0  0  0  0  0  0  0  0  0  0
    5.6621    0.8000    0.0000 N   0  0  0  1  0  0  0  0  0  0  0  0
    4.1404    1.2944    0.0000 N   0  0  0  1  0  0  0  0  0  0  0  0
    3.2001    0.0000    0.0000 C   0  0  0  0  0  0  0  0  0  0  0  0
    1.6001    0.0000    0.0000 S   0  0  0  0  0  0  0  0  0  0  0  0
    1.6001   -1.6000    0.0000 O   0  0  0  0  0  0  0  0  0  0  0  0
    1.6001    1.6000    0.0000 O   0  0  0  0  0  0  0  0  0  0  0  0
   -0.0001    0.0000    0.0000 C   0  0  0  0  0  0  0  0  0  0  0  0
   -0.8000    1.3856    0.0000 C   0  0  0  0  0  0  0  0  0  0  0  0
   -0.0001    2.7712    0.0000 C   0  0  0  0  0  0  0  0  0  0  0  0
    0.8000    4.1570    0.0000 H   0  0  0  0  0  0  0  0  0  0  0  0
   -0.8000    4.1570    0.0000 H   0  0  0  0  0  0  0  0  0  0  0  0
    1.6001    2.7712    0.0000 H   0  0  0  0  0  0  0  0  0  0  0  0
   -2.3999    1.3856    0.0000 C   0  0  0  0  0  0  0  0  0  0  0  0
   -3.2001    2.7712    0.0000 H   0  0  0  0  0  0  0  0  0  0  0  0
   -3.2001    0.0000    0.0000 C   0  0  0  0  0  0  0  0  0  0  0  0
   -4.8000    0.0000    0.0000 C   0  0  0  0  0  0  0  0  0  0  0  0
   -6.4000    0.0000    0.0000 H   0  0  0  0  0  0  0  0  0  0  0  0
   -5.5999    1.3856    0.0000 H   0  0  0  0  0  0  0  0  0  0  0  0
   -5.5999   -1.3857    0.0000 H   0  0  0  0  0  0  0  0  0  0  0  0
   -2.3999   -1.3856    0.0000 C   0  0  0  0  0  0  0  0  0  0  0  0
   -3.2001   -2.7713    0.0000 H   0  0  0  0  0  0  0  0  0  0  0  0
   -0.8000   -1.3856    0.0000 C   0  0  0  0  0  0  0  0  0  0  0  0
   -0.0001   -2.7713    0.0000 C   0  0  0  0  0  0  0  0  0  0  0  0
    0.8000   -4.1569    0.0000 H   0  0  0  0  0  0  0  0  0  0  0  0
   -0.8000   -4.1569    0.0000 H   0  0  0  0  0  0  0  0  0  0  0  0
    1.6001   -2.7713    0.0000 H   0  0  0  0  0  0  0  0  0  0  0  0
    4.1404   -1.2944    0.0000 N   0  0  0  1  0  0  0  0  0  0  0  0
    5.6621   -0.7999    0.0000 C   0  0  0  0  0  0  0  0  0  0  0  0
    6.9566   -1.7404    0.0000 H   0  0  0  0  0  0  0  0  0  0  0  0
    9.7128    2.0301    0.0000 C   0  0  0  0  0  0  0  0  0  0  0  0
   11.0070    2.9705    0.0000 C   0  0  0  0  0  0  0  0  0  0  0  0
   12.3015    3.9110    0.0000 H   0  0  0  0  0  0  0  0  0  0  0  0
   12.4688    2.3198    0.0000 H   0  0  0  0  0  0  0  0  0  0  0  0
   10.8397    4.5618    0.0000 H   0  0  0  0  0  0  0  0  0  0  0  0
   10.6532    0.7357    0.0000 H   0  0  0  0  0  0  0  0  0  0  0  0
    8.7722    3.3246    0.0000 H   0  0  0  0  0  0  0  0  0  0  0  0
   10.1767   -0.3343    0.0000 H   0  0  0  0  0  0  0  0  0  0  0  0
    6.9943   -0.6688    0.0000 H   0  0  0  0  0  0  0  0  0  0  0  0
    8.9199   -3.6840    0.0000 H   0  0  0  0  0  0  0  0  0  0  0  0
   10.2144   -2.7435    0.0000 H   0  0  0  0  0  0  0  0  0  0  0  0
    7.4584   -3.0333    0.0000 H   0  0  0  0  0  0  0  0  0  0  0  0
  1  2  1  0  0  0  0
  2  3  1  0  0  0  0
  3  4  1  0  0  0  0
  4  5  2  0  0  0  0
  4  6  1  0  0  0  0
  6  7  4  0  0  0  0
  7  8  4  0  0  0  0
  8  9  1  0  0  0  0
  9 10  2  0  0  0  0
  9 11  2  0  0  0  0
  9 12  1  0  0  0  0
 12 13  4  0  0  0  0
 13 14  1  0  0  0  0
 14 15  1  0  0  0  0
 14 16  1  0  0  0  0
 14 17  1  0  0  0  0
 13 18  4  0  0  0  0
 18 19  1  0  0  0  0
 18 20  4  0  0  0  0
 20 21  1  0  0  0  0
 21 22  1  0  0  0  0
 21 23  1  0  0  0  0
 21 24  1  0  0  0  0
 20 25  4  0  0  0  0
 25 26  1  0  0  0  0
 25 27  4  0  0  0  0
 27 12  4  0  0  0  0
 27 28  1  0  0  0  0
 28 29  1  0  0  0  0
 28 30  1  0  0  0  0
 28 31  1  0  0  0  0
  8 32  4  0  0  0  0
 32 33  4  0  0  0  0
 33  6  4  0  0  0  0
 33 34  1  0  0  0  0
  3 35  1  0  0  0  0
 35 36  1  0  0  0  0
 36 37  1  0  0  0  0
 36 38  1  0  0  0  0
 36 39  1  0  0  0  0
 35 40  1  0  0  0  0
 35 41  1  0  0  0  0
  2 42  1  0  0  0  0
  2 43  1  0  0  0  0
  1 44  1  0  0  0  0
  1 45  1  0  0  0  0
  1 46  1  0  0  0  0
M  END
> <CAS>
125306-83-4

> <NAME>
Cafenstrole

> <preferred_name>
Cafenstrole

> <iupac>
N,N-diethyl-3-(mesitylsulfonyl)-1H-1,2,4-triazole-1-carboxamide

> <SMILES>
Cc1cc(C)c(c(C)c1)S(=O)(=O)c1[n][n](c[n]1)C(=O)N(CC)CC

> <Canonical_QSARr>
Cc1cc(C)c(c(C)c1)S(=O)(=O)c1[n][n](c[n]1)C(=O)N(CC)CC

> <InChI_Code_QSARr>
InChI=1S/C16H22N4O3S/c1-6-19(7-2)16(21)20-10-17-15(18-20)24(22,23)14-12(4)8-11(3)9-13(14)5/h8-10H,6-7H2,1-5H3

> <InChI Key_QSARr>
HFEJHAAIJZXXRE-UHFFFAOYSA-N

> <Salt_Solvent>
?

> <WS Temperature>
20

> <WS Reference>
TOMLIN,C (1994)

> <dsstox_substance_id>
DTXSID7057949

> <LogMolar>
-5.1467

$$$$
128348-34-5
  -INDIGO-01081615412D

 30 31  0  0  0  0  0  0  0  0999 V2000
    4.0621   -0.8000    0.0000 O   0  0  0  0  0  0  0  0  0  0  0  0
    4.0621    0.8000    0.0000 C   0  0  0  0  0  0  0  0  0  0  0  0
    5.3565    1.7404    0.0000 S   0  0  0  0  0  0  0  0  0  0  0  0
    6.2970    0.4460    0.0000 O   0  0  0  0  0  0  0  0  0  0  0  0
    6.6510    2.6809    0.0000 N   0  0  0  0  0  0  0  0  0  0  0  0
    8.1127    2.0301    0.0000 H   0  0  0  0  0  0  0  0  0  0  0  0
    6.4838    4.2721    0.0000 H   0  0  0  0  0  0  0  0  0  0  0  0
    4.4161    3.0349    0.0000 O   0  0  0  0  0  0  0  0  0  0  0  0
    2.5404    1.2944    0.0000 C   0  0  0  0  0  0  0  0  0  0  0  0
    2.0460    2.8161    0.0000 H   0  0  0  0  0  0  0  0  0  0  0  0
    1.6000    0.0000    0.0000 C   0  0  0  0  0  0  0  0  0  0  0  0
   -0.0001    0.0000    0.0000 S   0  0  0  0  0  0  0  0  0  0  0  0
   -1.5999    0.0000    0.0000 C   0  0  0  0  0  0  0  0  0  0  0  0
   -2.4000    1.3857    0.0000 C   0  0  0  0  0  0  0  0  0  0  0  0
   -1.5999    2.7713    0.0000 H   0  0  0  0  0  0  0  0  0  0  0  0
   -4.0000    1.3857    0.0000 C   0  0  0  0  0  0  0  0  0  0  0  0
   -4.8001    2.7713    0.0000 H   0  0  0  0  0  0  0  0  0  0  0  0
   -4.8001    0.0000    0.0000 C   0  0  0  0  0  0  0  0  0  0  0  0
   -6.3999    0.0000    0.0000 C   0  0  0  0  0  0  0  0  0  0  0  0
   -8.0000    0.0000    0.0000 H   0  0  0  0  0  0  0  0  0  0  0  0
   -7.2000    1.3857    0.0000 H   0  0  0  0  0  0  0  0  0  0  0  0
   -7.2000   -1.3856    0.0000 H   0  0  0  0  0  0  0  0  0  0  0  0
   -4.0000   -1.3856    0.0000 C   0  0  0  0  0  0  0  0  0  0  0  0
   -4.8001   -2.7712    0.0000 H   0  0  0  0  0  0  0  0  0  0  0  0
   -2.4000   -1.3856    0.0000 C   0  0  0  0  0  0  0  0  0  0  0  0
   -1.5999   -2.7712    0.0000 H   0  0  0  0  0  0  0  0  0  0  0  0
   -0.0001   -1.6000    0.0000 O   0  0  0  0  0  0  0  0  0  0  0  0
   -0.0001    1.5999    0.0000 O   0  0  0  0  0  0  0  0  0  0  0  0
    2.5404   -1.2944    0.0000 C   0  0  0  0  0  0  0  0  0  0  0  0
    2.0460   -2.8161    0.0000 H   0  0  0  0  0  0  0  0  0  0  0  0
  1  2  4  0  0  0  0
  2  3  1  0  0  0  0
  3  4  2  0  0  0  0
  3  5  1  0  0  0  0
  5  6  1  0  0  0  0
  5  7  1  0  0  0  0
  3  8  2  0  0  0  0
  2  9  4  0  0  0  0
  9 10  1  0  0  0  0
  9 11  4  0  0  0  0
 11 12  1  0  0  0  0
 12 13  1  0  0  0  0
 13 14  4  0  0  0  0
 14 15  1  0  0  0  0
 14 16  4  0  0  0  0
 16 17  1  0  0  0  0
 16 18  4  0  0  0  0
 18 19  1  0  0  0  0
 19 20  1  0  0  0  0
 19 21  1  0  0  0  0
 19 22  1  0  0  0  0
 18 23  4  0  0  0  0
 23 24  1  0  0  0  0
 23 25  4  0  0  0  0
 25 13  4  0  0  0  0
 25 26  1  0  0  0  0
 12 27  2  0  0  0  0
 12 28  2  0  0  0  0
 11 29  4  0  0  0  0
 29  1  4  0  0  0  0
 29 30  1  0  0  0  0
M  END
> <CAS>
128348-34-5

> <NAME>
2-FURANSULFONAMIDE, 4-[(4-METHYLPHENYL)SULFONYL]

> <preferred_name>


> <iupac>


> <SMILES>
Cc1ccc(cc1)S(=O)(=O)c1cc(oc1)S(N)(=O)=O

> <Canonical_QSARr>
Cc1ccc(cc1)S(=O)(=O)c1cc(oc1)S(N)(=O)=O

> <InChI_Code_QSARr>
InChI=1S/C11H11NO5S2/c1-8-2-4-9(5-3-8)18(13,14)10-6-11(17-7-10)19(12,15)16/h2-7H,1H3,(H2,12,15,16)

> <InChI Key_QSARr>
VZNKQCCTTRDGPE-UHFFFAOYSA-N

> <Salt_Solvent>
?

> <WS Temperature>
25

> <WS Reference>
HARTMAN,GD ET AL. (1992)

> <dsstox_substance_id>


> <LogMolar>
-3.7801

$$$$
130339-07-0
  -INDIGO-01081615412D

 38 39  0  0  0  0  0  0  0  0999 V2000
    2.0569    2.4514    0.0000 C   0  0  0  0  0  0  0  0  0  0  0  0
    1.0285    1.2257    0.0000 C   0  0  0  0  0  0  0  0  0  0  0  0
   -0.0001    0.0000    0.0000 C   0  0  0  0  0  0  0  0  0  0  0  0
    1.2257   -1.0284    0.0000 N   0  0  0  0  0  0  0  0  0  0  0  0
    2.8257   -1.0284    0.0000 C   0  0  0  0  0  0  0  0  0  0  0  0
    3.6256    0.3572    0.0000 N   0  0  0  1  0  0  0  0  0  0  0  0
    5.2256    0.3572    0.0000 C   0  0  0  0  0  0  0  0  0  0  0  0
    6.0257    1.7428    0.0000 H   0  0  0  0  0  0  0  0  0  0  0  0
    6.0257   -1.0284    0.0000 N   0  0  0  1  0  0  0  0  0  0  0  0
    5.2256   -2.4141    0.0000 C   0  0  0  0  0  0  0  0  0  0  0  0
    6.0257   -3.7997    0.0000 C   0  0  0  0  0  0  0  0  0  0  0  0
    7.6257   -3.7997    0.0000 H   0  0  0  0  0  0  0  0  0  0  0  0
    6.8256   -5.1854    0.0000 H   0  0  0  0  0  0  0  0  0  0  0  0
    6.8256   -2.4141    0.0000 H   0  0  0  0  0  0  0  0  0  0  0  0
    3.6256   -2.4141    0.0000 C   0  0  0  0  0  0  0  0  0  0  0  0
    2.8257   -3.7997    0.0000 Cl  0  0  0  0  0  0  0  0  0  0  0  0
    0.4256   -2.4141    0.0000 H   0  0  0  0  0  0  0  0  0  0  0  0
   -1.2257   -1.0284    0.0000 C   0  0  0  0  0  0  0  0  0  0  0  0
   -2.6113   -0.2284    0.0000 C   0  0  0  0  0  0  0  0  0  0  0  0
   -2.6113    1.3716    0.0000 H   0  0  0  0  0  0  0  0  0  0  0  0
   -3.9970   -1.0284    0.0000 C   0  0  0  0  0  0  0  0  0  0  0  0
   -5.3825   -0.2284    0.0000 H   0  0  0  0  0  0  0  0  0  0  0  0
   -3.9970   -2.6285    0.0000 C   0  0  0  0  0  0  0  0  0  0  0  0
   -5.3825   -3.4285    0.0000 O   0  0  0  0  0  0  0  0  0  0  0  0
   -6.7682   -2.6285    0.0000 C   0  0  0  0  0  0  0  0  0  0  0  0
   -8.1539   -3.4285    0.0000 F   0  0  0  0  0  0  0  0  0  0  0  0
   -8.1539   -1.8285    0.0000 F   0  0  0  0  0  0  0  0  0  0  0  0
   -6.7682   -4.2285    0.0000 H   0  0  0  0  0  0  0  0  0  0  0  0
   -2.6113   -3.4285    0.0000 C   0  0  0  0  0  0  0  0  0  0  0  0
   -2.6113   -5.0285    0.0000 H   0  0  0  0  0  0  0  0  0  0  0  0
   -1.2257   -2.6285    0.0000 C   0  0  0  0  0  0  0  0  0  0  0  0
    0.1600   -3.4285    0.0000 H   0  0  0  0  0  0  0  0  0  0  0  0
   -1.2257    1.0285    0.0000 H   0  0  0  0  0  0  0  0  0  0  0  0
   -0.1973    2.2541    0.0000 H   0  0  0  0  0  0  0  0  0  0  0  0
    2.2541    0.1972    0.0000 H   0  0  0  0  0  0  0  0  0  0  0  0
    1.5096    3.9549    0.0000 H   0  0  0  0  0  0  0  0  0  0  0  0
    3.0853    3.6770    0.0000 H   0  0  0  0  0  0  0  0  0  0  0  0
    3.6326    2.1735    0.0000 H   0  0  0  0  0  0  0  0  0  0  0  0
  1  2  1  0  0  0  0
  2  3  1  0  0  0  0
  3  4  1  0  0  0  0
  4  5  1  0  0  0  0
  5  6  4  0  0  0  0
  6  7  4  0  0  0  0
  7  8  1  0  0  0  0
  7  9  4  0  0  0  0
  9 10  4  0  0  0  0
 10 11  1  0  0  0  0
 11 12  1  0  0  0  0
 11 13  1  0  0  0  0
 11 14  1  0  0  0  0
 10 15  4  0  0  0  0
 15  5  4  0  0  0  0
 15 16  1  0  0  0  0
  4 17  1  0  0  0  0
  3 18  1  0  0  0  0
 18 19  4  0  0  0  0
 19 20  1  0  0  0  0
 19 21  4  0  0  0  0
 21 22  1  0  0  0  0
 21 23  4  0  0  0  0
 23 24  1  0  0  0  0
 24 25  1  0  0  0  0
 25 26  1  0  0  0  0
 25 27  1  0  0  0  0
 25 28  1  0  0  0  0
 23 29  4  0  0  0  0
 29 30  1  0  0  0  0
 29 31  4  0  0  0  0
 31 18  4  0  0  0  0
 31 32  1  0  0  0  0
  3 33  1  0  0  0  0
  2 34  1  0  0  0  0
  2 35  1  0  0  0  0
  1 36  1  0  0  0  0
  1 37  1  0  0  0  0
  1 38  1  0  0  0  0
M  END
> <CAS>
130339-07-0

> <NAME>
DIFLUMETORIM

> <preferred_name>
Diflumetorim

> <iupac>
5-chloro-N-{1-[4-(difluoromethoxy)phenyl]propyl}-6-methylpyrimidin-4-amine

> <SMILES>
Cc1[n]c[n]c(NC(CC)c2ccc(cc2)OC(F)F)c1Cl

> <Canonical_QSARr>
Cc1[n]c[n]c(NC(CC)c2ccc(cc2)OC(F)F)c1Cl

> <InChI_Code_QSARr>
InChI=1S/C15H16ClF2N3O/c1-3-12(21-14-13(16)9(2)19-8-20-14)10-4-6-11(7-5-10)22-15(17)18/h4-8,12,15H,3H2,1-2H3,(H,19,20,21)

> <InChI Key_QSARr>
NEKULYKCZPJMMJ-UHFFFAOYSA-N

> <Salt_Solvent>
?

> <WS Temperature>


> <WS Reference>
TOMLIN,C (1997)

> <dsstox_substance_id>
DTXSID1057955

> <LogMolar>
-3.997

$$$$
135410-20-7
  -INDIGO-01081615412D

 26 26  0  0  0  0  0  0  0  0999 V2000
    2.7712    0.0000    0.0000 C   0  0  0  0  0  0  0  0  0  0  0  0
    2.7712   -1.6000    0.0000 N   0  0  0  0  0  0  0  0  0  0  0  0
    4.1569   -2.4000    0.0000 C   0  0  0  0  0  0  0  0  0  0  0  0
    5.5426   -3.2000    0.0000 N   0  0  0  0  0  0  0  0  0  0  0  0
    1.3856    0.8000    0.0000 N   0  0  0  0  0  0  0  0  0  0  0  0
    1.3856    2.4000    0.0000 C   0  0  0  0  0  0  0  0  0  0  0  0
    1.3856    4.0000    0.0000 H   0  0  0  0  0  0  0  0  0  0  0  0
    2.7712    3.2000    0.0000 H   0  0  0  0  0  0  0  0  0  0  0  0
   -0.0001    3.2000    0.0000 H   0  0  0  0  0  0  0  0  0  0  0  0
   -0.0001    0.0000    0.0000 C   0  0  0  0  0  0  0  0  0  0  0  0
   -1.3856   -0.8000    0.0000 C   0  0  0  0  0  0  0  0  0  0  0  0
   -2.7712    0.0000    0.0000 C   0  0  0  0  0  0  0  0  0  0  0  0
   -2.7712    1.6000    0.0000 H   0  0  0  0  0  0  0  0  0  0  0  0
   -4.1569   -0.8000    0.0000 C   0  0  0  0  0  0  0  0  0  0  0  0
   -5.5426    0.0000    0.0000 H   0  0  0  0  0  0  0  0  0  0  0  0
   -4.1569   -2.4000    0.0000 C   0  0  0  0  0  0  0  0  0  0  0  0
   -5.5426   -3.2000    0.0000 Cl  0  0  0  0  0  0  0  0  0  0  0  0
   -2.7712   -3.2000    0.0000 N   0  0  0  1  0  0  0  0  0  0  0  0
   -1.3856   -2.4000    0.0000 C   0  0  0  0  0  0  0  0  0  0  0  0
    0.0001   -3.2000    0.0000 H   0  0  0  0  0  0  0  0  0  0  0  0
    0.8000   -1.3857    0.0000 H   0  0  0  0  0  0  0  0  0  0  0  0
   -0.8000    1.3857    0.0000 H   0  0  0  0  0  0  0  0  0  0  0  0
    4.1569    0.8000    0.0000 C   0  0  0  0  0  0  0  0  0  0  0  0
    5.5426    1.6000    0.0000 H   0  0  0  0  0  0  0  0  0  0  0  0
    5.5426    0.0000    0.0000 H   0  0  0  0  0  0  0  0  0  0  0  0
    4.1569    2.4000    0.0000 H   0  0  0  0  0  0  0  0  0  0  0  0
  1  2  2  0  0  0  0
  2  3  1  0  0  0  0
  3  4  3  0  0  0  0
  1  5  1  0  0  0  0
  5  6  1  0  0  0  0
  6  7  1  0  0  0  0
  6  8  1  0  0  0  0
  6  9  1  0  0  0  0
  5 10  1  0  0  0  0
 10 11  1  0  0  0  0
 11 12  4  0  0  0  0
 12 13  1  0  0  0  0
 12 14  4  0  0  0  0
 14 15  1  0  0  0  0
 14 16  4  0  0  0  0
 16 17  1  0  0  0  0
 16 18  4  0  0  0  0
 18 19  4  0  0  0  0
 19 11  4  0  0  0  0
 19 20  1  0  0  0  0
 10 21  1  0  0  0  0
 10 22  1  0  0  0  0
  1 23  1  0  0  0  0
 23 24  1  0  0  0  0
 23 25  1  0  0  0  0
 23 26  1  0  0  0  0
M  END
> <CAS>
135410-20-7

> <NAME>
ACETAMIPRID

> <preferred_name>
Acetamiprid

> <iupac>
N-[(6-chloropyridin-3-yl)methyl]-N'-cyano-N-methylethanimidamide

> <SMILES>
C/C(=N\C#N)/N(C)Cc1c[n]c(Cl)cc1

> <Canonical_QSARr>
CC(=NC#N)N(C)Cc1c[n]c(Cl)cc1

> <InChI_Code_QSARr>
InChI=1S/C10H11ClN4/c1-8(14-7-12)15(2)6-9-3-4-10(11)13-5-9/h3-5H,6H2,1-2H3/b14-8+

> <InChI Key_QSARr>
WCXDHFDTOYPNIE-RIYZIHGNSA-N

> <Salt_Solvent>
?

> <WS Temperature>
25

> <WS Reference>
TOMLIN,C (1997)

> <dsstox_substance_id>
DTXSID0034300

> <LogMolar>
-1.7244

$$$$
135832-42-7
  -INDIGO-01081615412D

 33 33  0  0  0  0  0  0  0  0999 V2000
   -1.6001    0.0000    0.0000 S   0  0  0  0  0  0  0  0  0  0  0  0
   -3.1999   -0.0000    0.0000 C   0  0  0  0  0  0  0  0  0  0  0  0
   -4.0000    1.3856    0.0000 C   0  0  0  0  0  0  0  0  0  0  0  0
   -3.1999    2.7713    0.0000 H   0  0  0  0  0  0  0  0  0  0  0  0
   -5.6000    1.3856    0.0000 C   0  0  0  0  0  0  0  0  0  0  0  0
   -6.4001    2.7713    0.0000 H   0  0  0  0  0  0  0  0  0  0  0  0
   -6.4001    0.0000    0.0000 C   0  0  0  0  0  0  0  0  0  0  0  0
   -7.9999   -0.0000    0.0000 S   0  0  0  0  0  0  0  0  0  0  0  0
   -9.6000   -0.0000    0.0000 N   0  0  0  0  0  0  0  0  0  0  0  0
  -10.4000    1.3856    0.0000 H   0  0  0  0  0  0  0  0  0  0  0  0
  -10.4000   -1.3856    0.0000 H   0  0  0  0  0  0  0  0  0  0  0  0
   -7.9999    1.6000    0.0000 O   0  0  0  0  0  0  0  0  0  0  0  0
   -7.9999   -1.6000    0.0000 O   0  0  0  0  0  0  0  0  0  0  0  0
   -5.6000   -1.3856    0.0000 C   0  0  0  0  0  0  0  0  0  0  0  0
   -6.4001   -2.7713    0.0000 H   0  0  0  0  0  0  0  0  0  0  0  0
   -4.0000   -1.3856    0.0000 C   0  0  0  0  0  0  0  0  0  0  0  0
   -3.1999   -2.7713    0.0000 H   0  0  0  0  0  0  0  0  0  0  0  0
   -0.0001    0.0000    0.0000 C   0  0  0  0  0  0  0  0  0  0  0  0
    1.6000    0.0000    0.0000 C   0  0  0  0  0  0  0  0  0  0  0  0
    3.2001    0.0000    0.0000 C   0  0  0  0  0  0  0  0  0  0  0  0
    4.7999    0.0000    0.0000 C   0  0  0  0  0  0  0  0  0  0  0  0
    6.4000    0.0000    0.0000 O   0  0  0  0  0  0  0  0  0  0  0  0
    7.2000   -1.3856    0.0000 H   0  0  0  0  0  0  0  0  0  0  0  0
    4.7999   -1.6000    0.0000 H   0  0  0  0  0  0  0  0  0  0  0  0
    4.7999    1.6000    0.0000 H   0  0  0  0  0  0  0  0  0  0  0  0
    3.2001   -1.6000    0.0000 H   0  0  0  0  0  0  0  0  0  0  0  0
    3.2001    1.6000    0.0000 H   0  0  0  0  0  0  0  0  0  0  0  0
    1.6000   -1.6000    0.0000 H   0  0  0  0  0  0  0  0  0  0  0  0
    1.6000    1.6000    0.0000 H   0  0  0  0  0  0  0  0  0  0  0  0
   -0.0001   -1.6000    0.0000 H   0  0  0  0  0  0  0  0  0  0  0  0
   -0.0001    1.6000    0.0000 H   0  0  0  0  0  0  0  0  0  0  0  0
   -1.5999   -1.6000    0.0000 O   0  0  0  0  0  0  0  0  0  0  0  0
   -1.6001    1.6000    0.0000 O   0  0  0  0  0  0  0  0  0  0  0  0
  1  2  1  0  0  0  0
  2  3  4  0  0  0  0
  3  4  1  0  0  0  0
  3  5  4  0  0  0  0
  5  6  1  0  0  0  0
  5  7  4  0  0  0  0
  7  8  1  0  0  0  0
  8  9  1  0  0  0  0
  9 10  1  0  0  0  0
  9 11  1  0  0  0  0
  8 12  2  0  0  0  0
  8 13  2  0  0  0  0
  7 14  4  0  0  0  0
 14 15  1  0  0  0  0
 14 16  4  0  0  0  0
 16  2  4  0  0  0  0
 16 17  1  0  0  0  0
  1 18  1  0  0  0  0
 18 19  1  0  0  0  0
 19 20  1  0  0  0  0
 20 21  1  0  0  0  0
 21 22  1  0  0  0  0
 22 23  1  0  0  0  0
 21 24  1  0  0  0  0
 21 25  1  0  0  0  0
 20 26  1  0  0  0  0
 20 27  1  0  0  0  0
 19 28  1  0  0  0  0
 19 29  1  0  0  0  0
 18 30  1  0  0  0  0
 18 31  1  0  0  0  0
  1 32  2  0  0  0  0
  1 33  2  0  0  0  0
M  END
> <CAS>
135832-42-7

> <NAME>
BENZENESULFONAMIDE, 4-[(4-HYDROXYBUTYL)SULFONYL]

> <preferred_name>
PUBCHEM_15707348

> <iupac>
C10H15NO5S2

> <SMILES>
NS(=O)(=O)c1ccc(cc1)S(=O)(=O)CCCCO

> <Canonical_QSARr>
NS(=O)(=O)c1ccc(cc1)S(=O)(=O)CCCCO

> <InChI_Code_QSARr>
InChI=1S/C10H15NO5S2/c11-18(15,16)10-5-3-9(4-6-10)17(13,14)8-2-1-7-12/h3-6,12H,1-2,7-8H2,(H2,11,15,16)

> <InChI Key_QSARr>
HLBQGOCNVGPIOX-UHFFFAOYSA-N

> <Salt_Solvent>
?

> <WS Temperature>
25

> <WS Reference>
SHEPARD,KL ET AL. (1991)

> <dsstox_substance_id>
DTXSID80577109

> <LogMolar>
-2.1452

$$$$
135990-29-3
  -INDIGO-01081615412D

 49 50  0  0  0  0  0  0  0  0999 V2000
   -1.3856    0.8000    0.0000 S   0  0  0  0  0  0  0  0  0  0  0  0
    0.0001    0.0000    0.0000 C   0  0  0  0  0  0  0  0  0  0  0  0
    0.0001   -1.6000    0.0000 C   0  0  0  0  0  0  0  0  0  0  0  0
   -1.3856   -2.4000    0.0000 C   0  0  0  0  0  0  0  0  0  0  0  0
   -2.7712   -1.6000    0.0000 O   0  0  0  0  0  0  0  0  0  0  0  0
   -1.3856   -3.9999    0.0000 O   0  0  0  0  0  0  0  0  0  0  0  0
   -2.7712   -4.8000    0.0000 H   0  0  0  0  0  0  0  0  0  0  0  0
    1.3857   -2.4000    0.0000 C   0  0  0  0  0  0  0  0  0  0  0  0
    1.3857   -3.9999    0.0000 H   0  0  0  0  0  0  0  0  0  0  0  0
    2.7713   -1.6000    0.0000 C   0  0  0  0  0  0  0  0  0  0  0  0
    4.1569   -2.4000    0.0000 H   0  0  0  0  0  0  0  0  0  0  0  0
    2.7713    0.0000    0.0000 C   0  0  0  0  0  0  0  0  0  0  0  0
    4.1569    0.8000    0.0000 H   0  0  0  0  0  0  0  0  0  0  0  0
    1.3857    0.8000    0.0000 C   0  0  0  0  0  0  0  0  0  0  0  0
    1.3857    2.4001    0.0000 C   0  0  0  0  0  0  0  0  0  0  0  0
    1.3857    4.0000    0.0000 H   0  0  0  0  0  0  0  0  0  0  0  0
    2.7713    3.2000    0.0000 H   0  0  0  0  0  0  0  0  0  0  0  0
    0.0001    3.2000    0.0000 H   0  0  0  0  0  0  0  0  0  0  0  0
   -2.7712    1.6000    0.0000 N   0  0  0  0  0  0  0  0  0  0  0  0
   -4.1568    0.8000    0.0000 C   0  0  0  0  0  0  0  0  0  0  0  0
   -5.5424    1.6000    0.0000 N   0  0  0  0  0  0  0  0  0  0  0  0
   -6.9283    0.8000    0.0000 C   0  0  0  0  0  0  0  0  0  0  0  0
   -8.3140    1.6000    0.0000 N   0  0  0  1  0  0  0  0  0  0  0  0
   -9.6996    0.8000    0.0000 C   0  0  0  0  0  0  0  0  0  0  0  0
  -11.0852    1.6000    0.0000 O   0  0  0  0  0  0  0  0  0  0  0  0
  -12.4708    0.8000    0.0000 C   0  0  0  0  0  0  0  0  0  0  0  0
  -13.8564    0.0000    0.0000 C   0  0  0  0  0  0  0  0  0  0  0  0
  -15.2420   -0.8001    0.0000 F   0  0  0  0  0  0  0  0  0  0  0  0
  -15.2420    0.8000    0.0000 F   0  0  0  0  0  0  0  0  0  0  0  0
  -13.8564   -1.6000    0.0000 F   0  0  0  0  0  0  0  0  0  0  0  0
  -13.2706    2.1856    0.0000 H   0  0  0  0  0  0  0  0  0  0  0  0
  -11.6707   -0.5856    0.0000 H   0  0  0  0  0  0  0  0  0  0  0  0
   -9.6996   -0.8001    0.0000 N   0  0  0  1  0  0  0  0  0  0  0  0
   -8.3140   -1.6000    0.0000 C   0  0  0  0  0  0  0  0  0  0  0  0
   -8.3140   -3.2000    0.0000 N   0  0  0  0  0  0  0  0  0  0  0  0
   -9.6996   -4.0001    0.0000 C   0  0  0  0  0  0  0  0  0  0  0  0
  -11.0852   -4.8000    0.0000 H   0  0  0  0  0  0  0  0  0  0  0  0
   -9.6996   -5.6000    0.0000 H   0  0  0  0  0  0  0  0  0  0  0  0
  -11.0852   -3.2000    0.0000 H   0  0  0  0  0  0  0  0  0  0  0  0
   -6.9283   -4.0001    0.0000 C   0  0  0  0  0  0  0  0  0  0  0  0
   -6.9283   -5.6000    0.0000 H   0  0  0  0  0  0  0  0  0  0  0  0
   -5.5424   -4.8000    0.0000 H   0  0  0  0  0  0  0  0  0  0  0  0
   -5.5424   -3.2000    0.0000 H   0  0  0  0  0  0  0  0  0  0  0  0
   -6.9283   -0.8001    0.0000 N   0  0  0  1  0  0  0  0  0  0  0  0
   -5.5424    3.2000    0.0000 H   0  0  0  0  0  0  0  0  0  0  0  0
   -4.1568   -0.8001    0.0000 O   0  0  0  0  0  0  0  0  0  0  0  0
   -2.7712    3.2000    0.0000 H   0  0  0  0  0  0  0  0  0  0  0  0
   -2.1857   -0.5856    0.0000 O   0  0  0  0  0  0  0  0  0  0  0  0
   -0.5857    2.1856    0.0000 O   0  0  0  0  0  0  0  0  0  0  0  0
  1  2  1  0  0  0  0
  2  3  4  0  0  0  0
  3  4  1  0  0  0  0
  4  5  2  0  0  0  0
  4  6  1  0  0  0  0
  6  7  1  0  0  0  0
  3  8  4  0  0  0  0
  8  9  1  0  0  0  0
  8 10  4  0  0  0  0
 10 11  1  0  0  0  0
 10 12  4  0  0  0  0
 12 13  1  0  0  0  0
 12 14  4  0  0  0  0
 14  2  4  0  0  0  0
 14 15  1  0  0  0  0
 15 16  1  0  0  0  0
 15 17  1  0  0  0  0
 15 18  1  0  0  0  0
  1 19  1  0  0  0  0
 19 20  1  0  0  0  0
 20 21  1  0  0  0  0
 21 22  1  0  0  0  0
 22 23  4  0  0  0  0
 23 24  4  0  0  0  0
 24 25  1  0  0  0  0
 25 26  1  0  0  0  0
 26 27  1  0  0  0  0
 27 28  1  0  0  0  0
 27 29  1  0  0  0  0
 27 30  1  0  0  0  0
 26 31  1  0  0  0  0
 26 32  1  0  0  0  0
 24 33  4  0  0  0  0
 33 34  4  0  0  0  0
 34 35  1  0  0  0  0
 35 36  1  0  0  0  0
 36 37  1  0  0  0  0
 36 38  1  0  0  0  0
 36 39  1  0  0  0  0
 35 40  1  0  0  0  0
 40 41  1  0  0  0  0
 40 42  1  0  0  0  0
 40 43  1  0  0  0  0
 34 44  4  0  0  0  0
 44 22  4  0  0  0  0
 21 45  1  0  0  0  0
 20 46  2  0  0  0  0
 19 47  1  0  0  0  0
  1 48  2  0  0  0  0
  1 49  2  0  0  0  0
M  END
> <CAS>
135990-29-3

> <NAME>
TRIFLUSULFURON-METHYL

> <preferred_name>
Triflusulfuron [ISO]

> <iupac>
2-[[4-dimethylamino-6-(2,2,2-trifluoroethoxy)-1,3,5-triazin-2-yl]carbamoylsulfamoyl]-3-methylbenzoic acid

> <SMILES>
Cc1cccc(c1S(=O)(=O)NC(=O)Nc1[n]c([n]c([n]1)OCC(F)(F)F)N(C)C)C(O)=O

> <Canonical_QSARr>
Cc1cccc(c1S(=O)(=O)NC(=O)Nc1[n]c([n]c([n]1)OCC(F)(F)F)N(C)C)C(O)=O

> <InChI_Code_QSARr>
InChI=1S/C16H17F3N6O6S/c1-8-5-4-6-9(11(26)27)10(8)32(29,30)24-14(28)21-12-20-13(25(2)3)23-15(22-12)31-7-16(17,18)19/h4-6H,7H2,1-3H3,(H,26,27)(H2,20,21,22,23,24,28)

> <InChI Key_QSARr>
AKTQJCBOGPBERP-UHFFFAOYSA-N

> <Salt_Solvent>
?

> <WS Temperature>
25

> <WS Reference>
TOMLIN,C (1997); pH 3

> <dsstox_substance_id>
DTXSID10159614

> <LogMolar>
-5.6798

$$$$
138261-41-3
  -INDIGO-01081615412D

 27 28  0  0  0  0  0  0  0  0999 V2000
   -2.5746    0.2707    0.0000 N   0  0  0  0  0  0  0  0  0  0  0  0
   -2.2420   -1.2945    0.0000 C   0  0  0  0  0  0  0  0  0  0  0  0
   -3.8333   -1.4617    0.0000 H   0  0  0  0  0  0  0  0  0  0  0  0
   -2.2420   -2.8944    0.0000 H   0  0  0  0  0  0  0  0  0  0  0  0
   -0.6508   -1.4617    0.0000 C   0  0  0  0  0  0  0  0  0  0  0  0
   -0.9835   -3.0267    0.0000 H   0  0  0  0  0  0  0  0  0  0  0  0
    0.8710   -1.9561    0.0000 H   0  0  0  0  0  0  0  0  0  0  0  0
    0.0000   -0.0000    0.0000 N   0  0  0  0  0  0  0  0  0  0  0  0
    1.5651    0.3326    0.0000 C   0  0  0  0  0  0  0  0  0  0  0  0
    3.1302    0.6653    0.0000 C   0  0  0  0  0  0  0  0  0  0  0  0
    4.2008   -0.5237    0.0000 C   0  0  0  0  0  0  0  0  0  0  0  0
    3.7063   -2.0454    0.0000 H   0  0  0  0  0  0  0  0  0  0  0  0
    5.7656   -0.1910    0.0000 C   0  0  0  0  0  0  0  0  0  0  0  0
    6.8364   -1.3800    0.0000 H   0  0  0  0  0  0  0  0  0  0  0  0
    6.2601    1.3306    0.0000 C   0  0  0  0  0  0  0  0  0  0  0  0
    7.8252    1.6634    0.0000 Cl  0  0  0  0  0  0  0  0  0  0  0  0
    5.1895    2.5197    0.0000 N   0  0  0  1  0  0  0  0  0  0  0  0
    3.6245    2.1870    0.0000 C   0  0  0  0  0  0  0  0  0  0  0  0
    2.5539    3.3760    0.0000 H   0  0  0  0  0  0  0  0  0  0  0  0
    1.2324    1.8977    0.0000 H   0  0  0  0  0  0  0  0  0  0  0  0
    1.8978   -1.2324    0.0000 H   0  0  0  0  0  0  0  0  0  0  0  0
   -1.1891    1.0706    0.0000 C   0  0  0  0  0  0  0  0  0  0  0  0
   -1.0219    2.6618    0.0000 N   0  0  0  0  0  0  0  0  0  0  0  0
   -2.3162    3.6023    0.0000 N   0  0  0  0  0  0  0  0  0  0  0  0
   -2.1489    5.1935    0.0000 O   0  0  0  0  0  0  0  0  0  0  0  0
   -3.7779    2.9515    0.0000 O   0  0  0  0  0  0  0  0  0  0  0  0
   -4.0363    0.9214    0.0000 H   0  0  0  0  0  0  0  0  0  0  0  0
  1  2  1  0  0  0  0
  2  3  1  0  0  0  0
  2  4  1  0  0  0  0
  2  5  1  0  0  0  0
  5  6  1  0  0  0  0
  5  7  1  0  0  0  0
  5  8  1  0  0  0  0
  8  9  1  0  0  0  0
  9 10  1  0  0  0  0
 10 11  4  0  0  0  0
 11 12  1  0  0  0  0
 11 13  4  0  0  0  0
 13 14  1  0  0  0  0
 13 15  4  0  0  0  0
 15 16  1  0  0  0  0
 15 17  4  0  0  0  0
 17 18  4  0  0  0  0
 18 10  4  0  0  0  0
 18 19  1  0  0  0  0
  9 20  1  0  0  0  0
  9 21  1  0  0  0  0
  8 22  1  0  0  0  0
 22  1  1  0  0  0  0
 22 23  2  0  0  0  0
 23 24  1  0  0  0  0
 24 25  2  0  0  0  0
 24 26  1  0  0  0  0
  1 27  1  0  0  0  0
M  CHG  2  24   1  26  -1
M  END
> <CAS>
138261-41-3

> <NAME>
IMIDACLOPRID

> <preferred_name>
Imidacloprid

> <iupac>
(2E)-1-[(6-chloropyridin-3-yl)methyl]-N-nitroimidazolidin-2-imine

> <SMILES>
[O-][N+](=O)/N=C1\NCCN\1Cc1ccc(Cl)[n]c1

> <Canonical_QSARr>
[O-][N+](=O)N=C1NCCN1Cc1ccc(Cl)[n]c1

> <InChI_Code_QSARr>
InChI=1S/C9H10ClN5O2/c10-8-2-1-7(5-12-8)6-14-4-3-11-9(14)13-15(16)17/h1-2,5H,3-4,6H2,(H,11,13)

> <InChI Key_QSARr>
YWTYJOPNNQFBPC-UHFFFAOYSA-N

> <Salt_Solvent>
?

> <WS Temperature>
20

> <WS Reference>
TOMLIN,C (2003)

> <dsstox_substance_id>
DTXSID5032442

> <LogMolar>
-2.6223

$$$$
142459-58-3
  -INDIGO-01081615412D

 37 38  0  0  0  0  0  0  0  0999 V2000
   -0.0001   -2.7713    0.0000 C   0  0  0  0  0  0  0  0  0  0  0  0
   -0.8000   -4.1569    0.0000 C   0  0  0  0  0  0  0  0  0  0  0  0
   -2.3036   -4.7042    0.0000 H   0  0  0  0  0  0  0  0  0  0  0  0
   -0.0001   -5.5426    0.0000 C   0  0  0  0  0  0  0  0  0  0  0  0
   -0.8000   -6.9282    0.0000 H   0  0  0  0  0  0  0  0  0  0  0  0
    1.6000   -5.5426    0.0000 C   0  0  0  0  0  0  0  0  0  0  0  0
    2.3999   -6.9282    0.0000 F   0  0  0  0  0  0  0  0  0  0  0  0
    2.3999   -4.1569    0.0000 C   0  0  0  0  0  0  0  0  0  0  0  0
    4.0000   -4.1569    0.0000 H   0  0  0  0  0  0  0  0  0  0  0  0
    1.6000   -2.7713    0.0000 C   0  0  0  0  0  0  0  0  0  0  0  0
    2.3999   -1.3856    0.0000 H   0  0  0  0  0  0  0  0  0  0  0  0
   -0.8000   -1.3856    0.0000 N   0  0  0  0  0  0  0  0  0  0  0  0
   -0.0001    0.0000    0.0000 C   0  0  0  0  0  0  0  0  0  0  0  0
    1.0284    1.2256    0.0000 C   0  0  0  0  0  0  0  0  0  0  0  0
    2.0569    2.4514    0.0000 H   0  0  0  0  0  0  0  0  0  0  0  0
    0.4813    2.7292    0.0000 H   0  0  0  0  0  0  0  0  0  0  0  0
    2.6041    0.9479    0.0000 H   0  0  0  0  0  0  0  0  0  0  0  0
   -1.3857    0.8001    0.0000 C   0  0  0  0  0  0  0  0  0  0  0  0
   -2.7713    1.5999    0.0000 H   0  0  0  0  0  0  0  0  0  0  0  0
   -1.3857    2.4000    0.0000 H   0  0  0  0  0  0  0  0  0  0  0  0
   -0.0001    1.5999    0.0000 H   0  0  0  0  0  0  0  0  0  0  0  0
    1.3855   -0.8000    0.0000 H   0  0  0  0  0  0  0  0  0  0  0  0
   -2.4001   -1.3856    0.0000 C   0  0  0  0  0  0  0  0  0  0  0  0
   -3.2000    0.0000    0.0000 O   0  0  0  0  0  0  0  0  0  0  0  0
   -3.2000   -2.7713    0.0000 C   0  0  0  0  0  0  0  0  0  0  0  0
   -4.5856   -1.9712    0.0000 O   0  0  0  0  0  0  0  0  0  0  0  0
   -5.9712   -2.7713    0.0000 C   0  0  0  0  0  0  0  0  0  0  0  0
   -6.1385   -4.3625    0.0000 N   0  0  0  1  0  0  0  0  0  0  0  0
   -7.7037   -4.6952    0.0000 N   0  0  0  1  0  0  0  0  0  0  0  0
   -8.5036   -3.3096    0.0000 C   0  0  0  0  0  0  0  0  0  0  0  0
  -10.0948   -3.1423    0.0000 C   0  0  0  0  0  0  0  0  0  0  0  0
  -11.6860   -2.9751    0.0000 F   0  0  0  0  0  0  0  0  0  0  0  0
  -11.0352   -4.4368    0.0000 F   0  0  0  0  0  0  0  0  0  0  0  0
  -10.7456   -1.6806    0.0000 F   0  0  0  0  0  0  0  0  0  0  0  0
   -7.4330   -2.1205    0.0000 S   0  0  0  1  0  0  0  0  0  0  0  0
   -3.9999   -4.1569    0.0000 H   0  0  0  0  0  0  0  0  0  0  0  0
   -1.8144   -3.5713    0.0000 H   0  0  0  0  0  0  0  0  0  0  0  0
  1  2  4  0  0  0  0
  2  3  1  0  0  0  0
  2  4  4  0  0  0  0
  4  5  1  0  0  0  0
  4  6  4  0  0  0  0
  6  7  1  0  0  0  0
  6  8  4  0  0  0  0
  8  9  1  0  0  0  0
  8 10  4  0  0  0  0
 10  1  4  0  0  0  0
 10 11  1  0  0  0  0
  1 12  1  0  0  0  0
 12 13  1  0  0  0  0
 13 14  1  0  0  0  0
 14 15  1  0  0  0  0
 14 16  1  0  0  0  0
 14 17  1  0  0  0  0
 13 18  1  0  0  0  0
 18 19  1  0  0  0  0
 18 20  1  0  0  0  0
 18 21  1  0  0  0  0
 13 22  1  0  0  0  0
 12 23  1  0  0  0  0
 23 24  2  0  0  0  0
 23 25  1  0  0  0  0
 25 26  1  0  0  0  0
 26 27  1  0  0  0  0
 27 28  4  0  0  0  0
 28 29  4  0  0  0  0
 29 30  4  0  0  0  0
 30 31  1  0  0  0  0
 31 32  1  0  0  0  0
 31 33  1  0  0  0  0
 31 34  1  0  0  0  0
 30 35  4  0  0  0  0
 35 27  4  0  0  0  0
 25 36  1  0  0  0  0
 25 37  1  0  0  0  0
M  END
> <CAS>
142459-58-3

> <NAME>
Fluthiamide

> <preferred_name>
Flufenacet

> <iupac>
N-(4-fluorophenyl)-N-(propan-2-yl)-2-{[5-(trifluoromethyl)-1,3,4-thiadiazol-2-yl]oxy}acetamide

> <SMILES>
CC(C)N(C(=O)COc1[n][n]c([s]1)C(F)(F)F)c1ccc(F)cc1

> <Canonical_QSARr>
CC(C)N(C(=O)COc1[n][n]c([s]1)C(F)(F)F)c1ccc(F)cc1

> <InChI_Code_QSARr>
InChI=1S/C14H13F4N3O2S/c1-8(2)21(10-5-3-9(15)4-6-10)11(22)7-23-13-20-19-12(24-13)14(16,17)18/h3-6,8H,7H2,1-2H3

> <InChI Key_QSARr>
IANUJLZYFUDJIH-UHFFFAOYSA-N

> <Salt_Solvent>
?

> <WS Temperature>
25

> <WS Reference>
TOMLIN,C (1997)

> <dsstox_substance_id>
DTXSID2032552

> <LogMolar>
-3.8121

$$$$
145348-20-5
  -INDIGO-01081615412D

 34 35  0  0  0  0  0  0  0  0999 V2000
   -1.3857   -0.8000    0.0000 S   0  0  0  0  0  0  0  0  0  0  0  0
   -2.7714   -1.6000    0.0000 C   0  0  0  0  0  0  0  0  0  0  0  0
   -4.1568   -0.8000    0.0000 C   0  0  0  0  0  0  0  0  0  0  0  0
   -4.1570    0.8000    0.0000 H   0  0  0  0  0  0  0  0  0  0  0  0
   -5.5425   -1.6000    0.0000 C   0  0  0  0  0  0  0  0  0  0  0  0
   -6.9282   -0.8000    0.0000 H   0  0  0  0  0  0  0  0  0  0  0  0
   -5.5425   -3.2000    0.0000 C   0  0  0  0  0  0  0  0  0  0  0  0
   -6.9282   -3.9999    0.0000 C   0  0  0  0  0  0  0  0  0  0  0  0
   -8.3138   -4.8000    0.0000 H   0  0  0  0  0  0  0  0  0  0  0  0
   -8.3138   -3.2000    0.0000 H   0  0  0  0  0  0  0  0  0  0  0  0
   -6.9282   -5.6000    0.0000 H   0  0  0  0  0  0  0  0  0  0  0  0
   -4.1568   -3.9999    0.0000 C   0  0  0  0  0  0  0  0  0  0  0  0
   -4.1568   -5.6000    0.0000 H   0  0  0  0  0  0  0  0  0  0  0  0
   -2.7714   -3.2000    0.0000 C   0  0  0  0  0  0  0  0  0  0  0  0
   -1.3857   -3.9999    0.0000 H   0  0  0  0  0  0  0  0  0  0  0  0
   -0.0000   -0.0001    0.0000 C   0  0  0  0  0  0  0  0  0  0  0  0
    1.0284   -1.2257    0.0000 C   0  0  0  0  0  0  0  0  0  0  0  0
    0.4811   -2.7292    0.0000 O   0  0  0  0  0  0  0  0  0  0  0  0
    2.6042   -0.9478    0.0000 O   0  0  0  0  0  0  0  0  0  0  0  0
    3.6326   -2.1734    0.0000 C   0  0  0  0  0  0  0  0  0  0  0  0
    4.6610   -3.3991    0.0000 C   0  0  0  0  0  0  0  0  0  0  0  0
    5.6895   -4.6248    0.0000 H   0  0  0  0  0  0  0  0  0  0  0  0
    6.2368   -3.1213    0.0000 H   0  0  0  0  0  0  0  0  0  0  0  0
    4.1137   -4.9026    0.0000 H   0  0  0  0  0  0  0  0  0  0  0  0
    4.8582   -1.1450    0.0000 H   0  0  0  0  0  0  0  0  0  0  0  0
    2.4070   -3.2019    0.0000 H   0  0  0  0  0  0  0  0  0  0  0  0
    1.0284    1.2256    0.0000 C   0  0  0  0  0  0  0  0  0  0  0  0
    2.4141    0.4257    0.0000 H   0  0  0  0  0  0  0  0  0  0  0  0
    1.5757    2.7291    0.0000 H   0  0  0  0  0  0  0  0  0  0  0  0
   -0.5473    1.5034    0.0000 C   0  0  0  0  0  0  0  0  0  0  0  0
   -0.5473    3.1035    0.0000 H   0  0  0  0  0  0  0  0  0  0  0  0
   -2.0507    2.0507    0.0000 H   0  0  0  0  0  0  0  0  0  0  0  0
   -0.5857   -2.1857    0.0000 O   0  0  0  0  0  0  0  0  0  0  0  0
   -2.1856    0.5856    0.0000 O   0  0  0  0  0  0  0  0  0  0  0  0
  1  2  1  0  0  0  0
  2  3  4  0  0  0  0
  3  4  1  0  0  0  0
  3  5  4  0  0  0  0
  5  6  1  0  0  0  0
  5  7  4  0  0  0  0
  7  8  1  0  0  0  0
  8  9  1  0  0  0  0
  8 10  1  0  0  0  0
  8 11  1  0  0  0  0
  7 12  4  0  0  0  0
 12 13  1  0  0  0  0
 12 14  4  0  0  0  0
 14  2  4  0  0  0  0
 14 15  1  0  0  0  0
  1 16  1  0  0  0  0
 16 17  1  0  0  0  0
 17 18  2  0  0  0  0
 17 19  1  0  0  0  0
 19 20  1  0  0  0  0
 20 21  1  0  0  0  0
 21 22  1  0  0  0  0
 21 23  1  0  0  0  0
 21 24  1  0  0  0  0
 20 25  1  0  0  0  0
 20 26  1  0  0  0  0
 16 27  1  0  0  0  0
 27 28  1  0  0  0  0
 27 29  1  0  0  0  0
 27 30  1  0  0  0  0
 30 16  1  0  0  0  0
 30 31  1  0  0  0  0
 30 32  1  0  0  0  0
  1 33  2  0  0  0  0
  1 34  2  0  0  0  0
M  END
> <CAS>
145348-20-5

> <NAME>
Ethyl (1-(4-methyl)phenylsulfonyl) cyclopropane

> <preferred_name>
Cyclopropanecarboxylic acid, 1-((4-methylphenyl)sulfonyl)-, ethyl ester

> <iupac>
ethyl 1-(4-methylphenyl)sulfonylcyclopropane-1-carboxylate

> <SMILES>
Cc1ccc(cc1)S(=O)(=O)C1(CC1)C(=O)OCC

> <Canonical_QSARr>
Cc1ccc(cc1)S(=O)(=O)C1(CC1)C(=O)OCC

> <InChI_Code_QSARr>
InChI=1S/C13H16O4S/c1-3-17-12(14)13(8-9-13)18(15,16)11-6-4-10(2)5-7-11/h4-7H,3,8-9H2,1-2H3

> <InChI Key_QSARr>
WPUICWRULLWSQY-UHFFFAOYSA-N

> <Salt_Solvent>
?

> <WS Temperature>
25

> <WS Reference>
HE,Y ET AL. (1995B)

> <dsstox_substance_id>
DTXSID90162989

> <LogMolar>
-3.0104

$$$$
145348-24-9
  -INDIGO-01081615412D

 37 38  0  0  0  0  0  0  0  0999 V2000
   -6.1283    5.1423    0.0000 Cl  0  0  0  0  0  0  0  0  0  0  0  0
   -4.9028    4.1139    0.0000 C   0  0  0  0  0  0  0  0  0  0  0  0
   -5.1804    2.5382    0.0000 C   0  0  0  0  0  0  0  0  0  0  0  0
   -6.6840    1.9909    0.0000 H   0  0  0  0  0  0  0  0  0  0  0  0
   -3.9549    1.5096    0.0000 C   0  0  0  0  0  0  0  0  0  0  0  0
   -4.2326   -0.0660    0.0000 H   0  0  0  0  0  0  0  0  0  0  0  0
   -2.4513    2.0569    0.0000 C   0  0  0  0  0  0  0  0  0  0  0  0
   -1.2256    1.0285    0.0000 S   0  0  0  0  0  0  0  0  0  0  0  0
    0.0001   -0.0000    0.0000 C   0  0  0  0  0  0  0  0  0  0  0  0
    1.2256    1.0285    0.0000 C   0  0  0  0  0  0  0  0  0  0  0  0
    0.9479    2.6041    0.0000 O   0  0  0  0  0  0  0  0  0  0  0  0
    2.7292    0.4813    0.0000 O   0  0  0  0  0  0  0  0  0  0  0  0
    3.9549    1.5096    0.0000 C   0  0  0  0  0  0  0  0  0  0  0  0
    5.3404    2.3097    0.0000 C   0  0  0  0  0  0  0  0  0  0  0  0
    6.7261    3.1097    0.0000 H   0  0  0  0  0  0  0  0  0  0  0  0
    6.7261    1.5096    0.0000 H   0  0  0  0  0  0  0  0  0  0  0  0
    5.3404    3.9097    0.0000 H   0  0  0  0  0  0  0  0  0  0  0  0
    4.9833    0.2841    0.0000 C   0  0  0  0  0  0  0  0  0  0  0  0
    6.0118   -0.9416    0.0000 H   0  0  0  0  0  0  0  0  0  0  0  0
    4.4362   -1.2195    0.0000 H   0  0  0  0  0  0  0  0  0  0  0  0
    6.5590    0.5618    0.0000 H   0  0  0  0  0  0  0  0  0  0  0  0
    2.9264    2.7354    0.0000 C   0  0  0  0  0  0  0  0  0  0  0  0
    3.4736    4.2388    0.0000 H   0  0  0  0  0  0  0  0  0  0  0  0
    1.8980    3.9611    0.0000 H   0  0  0  0  0  0  0  0  0  0  0  0
    4.4298    3.2826    0.0000 H   0  0  0  0  0  0  0  0  0  0  0  0
   -0.8000   -1.3856    0.0000 C   0  0  0  0  0  0  0  0  0  0  0  0
   -2.4000   -1.3856    0.0000 H   0  0  0  0  0  0  0  0  0  0  0  0
   -1.0779   -2.9613    0.0000 H   0  0  0  0  0  0  0  0  0  0  0  0
    0.8000   -1.3856    0.0000 C   0  0  0  0  0  0  0  0  0  0  0  0
    1.0778   -2.9613    0.0000 H   0  0  0  0  0  0  0  0  0  0  0  0
    2.3036   -0.8383    0.0000 H   0  0  0  0  0  0  0  0  0  0  0  0
   -0.1972    2.2541    0.0000 O   0  0  0  0  0  0  0  0  0  0  0  0
   -2.2541   -0.1972    0.0000 O   0  0  0  0  0  0  0  0  0  0  0  0
   -2.1735    3.6326    0.0000 C   0  0  0  0  0  0  0  0  0  0  0  0
   -0.6701    4.1799    0.0000 H   0  0  0  0  0  0  0  0  0  0  0  0
   -3.3992    4.6610    0.0000 C   0  0  0  0  0  0  0  0  0  0  0  0
   -3.1213    6.2368    0.0000 H   0  0  0  0  0  0  0  0  0  0  0  0
  1  2  1  0  0  0  0
  2  3  4  0  0  0  0
  3  4  1  0  0  0  0
  3  5  4  0  0  0  0
  5  6  1  0  0  0  0
  5  7  4  0  0  0  0
  7  8  1  0  0  0  0
  8  9  1  0  0  0  0
  9 10  1  0  0  0  0
 10 11  2  0  0  0  0
 10 12  1  0  0  0  0
 12 13  1  0  0  0  0
 13 14  1  0  0  0  0
 14 15  1  0  0  0  0
 14 16  1  0  0  0  0
 14 17  1  0  0  0  0
 13 18  1  0  0  0  0
 18 19  1  0  0  0  0
 18 20  1  0  0  0  0
 18 21  1  0  0  0  0
 13 22  1  0  0  0  0
 22 23  1  0  0  0  0
 22 24  1  0  0  0  0
 22 25  1  0  0  0  0
  9 26  1  0  0  0  0
 26 27  1  0  0  0  0
 26 28  1  0  0  0  0
 26 29  1  0  0  0  0
 29  9  1  0  0  0  0
 29 30  1  0  0  0  0
 29 31  1  0  0  0  0
  8 32  2  0  0  0  0
  8 33  2  0  0  0  0
  7 34  4  0  0  0  0
 34 35  1  0  0  0  0
 34 36  4  0  0  0  0
 36  2  4  0  0  0  0
 36 37  1  0  0  0  0
M  END
> <CAS>
145348-24-9

> <NAME>
tert-Butyl (1-(4-chloro)phenylsulfonyl) cyclopro

> <preferred_name>
Cyclopropanecarboxylic acid, 1-((4-chlorophenyl)sulfonyl)-, 1,1-dimethylethyl ester

> <iupac>
tert-butyl 1-(4-chlorophenyl)sulfonylcyclopropane-1-carboxylate

> <SMILES>
CC(C)(C)OC(=O)C1(CC1)S(=O)(=O)c1ccc(Cl)cc1

> <Canonical_QSARr>
CC(C)(C)OC(=O)C1(CC1)S(=O)(=O)c1ccc(Cl)cc1

> <InChI_Code_QSARr>
InChI=1S/C14H17ClO4S/c1-13(2,3)19-12(16)14(8-9-14)20(17,18)11-6-4-10(15)5-7-11/h4-7H,8-9H2,1-3H3

> <InChI Key_QSARr>
GMJAXKKUTHHHMD-UHFFFAOYSA-N

> <Salt_Solvent>
?

> <WS Temperature>
25

> <WS Reference>
HE,Y ET AL. (1995B)

> <dsstox_substance_id>
DTXSID80162993

> <LogMolar>
-4.1206

$$$$
147059-72-1
  -INDIGO-01081615412D

 45 49  0  0  0  0  0  0  0  0999 V2000
    4.2035   -2.5126    0.0000 C   0  0  0  0  0  0  0  0  0  0  0  0
    4.0364   -0.9214    0.0000 C   0  0  0  0  0  0  0  0  0  0  0  0
    2.5746   -0.2706    0.0000 N   0  0  0  0  0  0  0  0  0  0  0  0
    2.2420    1.2945    0.0000 C   0  0  0  0  0  0  0  0  0  0  0  0
    3.8332    1.4617    0.0000 H   0  0  0  0  0  0  0  0  0  0  0  0
    2.2420    2.8945    0.0000 H   0  0  0  0  0  0  0  0  0  0  0  0
    0.6508    1.4617    0.0000 C   0  0  0  0  0  0  0  0  0  0  0  0
   -0.9404    1.2945    0.0000 C   0  0  0  0  0  0  0  0  0  0  0  0
   -1.3814    2.8324    0.0000 N   0  0  0  0  0  0  0  0  0  0  0  0
   -2.9340    3.2195    0.0000 H   0  0  0  0  0  0  0  0  0  0  0  0
   -0.2701    3.9833    0.0000 H   0  0  0  0  0  0  0  0  0  0  0  0
   -2.3784    0.5930    0.0000 H   0  0  0  0  0  0  0  0  0  0  0  0
    0.0001    0.0000    0.0000 C   0  0  0  0  0  0  0  0  0  0  0  0
   -1.1890   -1.0705    0.0000 H   0  0  0  0  0  0  0  0  0  0  0  0
    1.1890   -1.0705    0.0000 C   0  0  0  0  0  0  0  0  0  0  0  0
    0.0001   -2.1413    0.0000 H   0  0  0  0  0  0  0  0  0  0  0  0
    2.1296   -2.3650    0.0000 H   0  0  0  0  0  0  0  0  0  0  0  0
    0.6508    3.0617    0.0000 H   0  0  0  0  0  0  0  0  0  0  0  0
    5.3307    0.0192    0.0000 N   0  0  0  1  0  0  0  0  0  0  0  0
    6.7925   -0.6317    0.0000 C   0  0  0  0  0  0  0  0  0  0  0  0
    8.0868    0.3087    0.0000 N   0  0  0  0  0  0  0  0  0  0  0  0
    7.9196    1.8999    0.0000 C   0  0  0  0  0  0  0  0  0  0  0  0
    9.2140    2.8404    0.0000 C   0  0  0  0  0  0  0  0  0  0  0  0
   10.6757    2.1896    0.0000 H   0  0  0  0  0  0  0  0  0  0  0  0
    9.0468    4.4316    0.0000 C   0  0  0  0  0  0  0  0  0  0  0  0
   10.3412    5.3722    0.0000 H   0  0  0  0  0  0  0  0  0  0  0  0
    7.5851    5.0825    0.0000 C   0  0  0  0  0  0  0  0  0  0  0  0
    7.4179    6.6737    0.0000 F   0  0  0  0  0  0  0  0  0  0  0  0
    6.2907    4.1419    0.0000 C   0  0  0  0  0  0  0  0  0  0  0  0
    4.8290    4.7928    0.0000 H   0  0  0  0  0  0  0  0  0  0  0  0
    6.4579    2.5507    0.0000 C   0  0  0  0  0  0  0  0  0  0  0  0
    5.1635    1.6104    0.0000 F   0  0  0  0  0  0  0  0  0  0  0  0
    9.5486   -0.3420    0.0000 C   0  0  0  0  0  0  0  0  0  0  0  0
    9.7157   -1.9332    0.0000 C   0  0  0  0  0  0  0  0  0  0  0  0
    8.4214   -2.8737    0.0000 C   0  0  0  0  0  0  0  0  0  0  0  0
    8.5885   -4.4649    0.0000 O   0  0  0  0  0  0  0  0  0  0  0  0
    6.9596   -2.2229    0.0000 C   0  0  0  0  0  0  0  0  0  0  0  0
    5.6653   -3.1634    0.0000 C   0  0  0  0  0  0  0  0  0  0  0  0
    5.8325   -4.7546    0.0000 H   0  0  0  0  0  0  0  0  0  0  0  0
   11.1775   -2.5840    0.0000 C   0  0  0  0  0  0  0  0  0  0  0  0
   12.4718   -1.6436    0.0000 O   0  0  0  0  0  0  0  0  0  0  0  0
   11.3446   -4.1752    0.0000 O   0  0  0  0  0  0  0  0  0  0  0  0
   12.8064   -4.8261    0.0000 H   0  0  0  0  0  0  0  0  0  0  0  0
   10.8429    0.5984    0.0000 H   0  0  0  0  0  0  0  0  0  0  0  0
    2.9092   -3.4531    0.0000 F   0  0  0  0  0  0  0  0  0  0  0  0
  1  2  4  0  0  0  0
  2  3  1  0  0  0  0
  3  4  1  0  0  0  0
  4  5  1  0  0  0  0
  4  6  1  0  0  0  0
  4  7  1  0  0  0  0
  7  8  1  0  0  0  0
  8  9  1  0  0  0  0
  9 10  1  0  0  0  0
  9 11  1  0  0  0  0
  8 12  1  0  0  0  0
  8 13  1  0  0  0  0
 13  7  1  0  0  0  0
 13 14  1  0  0  0  0
 13 15  1  0  0  0  0
 15  3  1  0  0  0  0
 15 16  1  0  0  0  0
 15 17  1  0  0  0  0
  7 18  1  0  0  0  0
  2 19  4  0  0  0  0
 19 20  4  0  0  0  0
 20 21  1  0  0  0  0
 21 22  1  0  0  0  0
 22 23  4  0  0  0  0
 23 24  1  0  0  0  0
 23 25  4  0  0  0  0
 25 26  1  0  0  0  0
 25 27  4  0  0  0  0
 27 28  1  0  0  0  0
 27 29  4  0  0  0  0
 29 30  1  0  0  0  0
 29 31  4  0  0  0  0
 31 22  4  0  0  0  0
 31 32  1  0  0  0  0
 21 33  1  0  0  0  0
 33 34  2  0  0  0  0
 34 35  1  0  0  0  0
 35 36  2  0  0  0  0
 35 37  1  0  0  0  0
 37 20  4  0  0  0  0
 37 38  4  0  0  0  0
 38  1  4  0  0  0  0
 38 39  1  0  0  0  0
 34 40  1  0  0  0  0
 40 41  2  0  0  0  0
 40 42  1  0  0  0  0
 42 43  1  0  0  0  0
 33 44  1  0  0  0  0
  1 45  1  0  0  0  0
M  END
> <CAS>
147059-72-1

> <NAME>
Trovafloxacin

> <preferred_name>
Trovafloxacin

> <iupac>
7-[(1R,5S,6s)-6-amino-3-azabicyclo[3.1.0]hex-3-yl]-1-(2,4-difluorophenyl)-6-fluoro-4-oxo-1,4-dihydro-1,8-naphthyridine-3-carboxylic acid

> <SMILES>
N[C@@H]1[C@H]2CN(C[C@H]21)c1[n]c2c(cc1F)C(=O)C(=CN2c1ccc(F)cc1F)C(O)=O

> <Canonical_QSARr>
NC1C2CN(CC21)c1[n]c2c(cc1F)C(=O)C(=CN2c1ccc(F)cc1F)C(O)=O

> <InChI_Code_QSARr>
InChI=1S/C20H15F3N4O3/c21-8-1-2-15(13(22)3-8)27-7-12(20(29)30)17(28)9-4-14(23)19(25-18(9)27)26-5-10-11(6-26)16(10)24/h1-4,7,10-11,16H,5-6,24H2,(H,29,30)

> <InChI Key_QSARr>
WVPSKSLAZQPAKQ-UHFFFAOYSA-N

> <Salt_Solvent>
?

> <WS Temperature>
25

> <WS Reference>
MCFARLAND,JW ET AL. (2001)

> <dsstox_substance_id>
DTXSID0041145

> <LogMolar>
-4.5296

$$$$
153233-91-1
  -INDIGO-01081615412D

 49 51  0  0  0  0  0  0  0  0999 V2000
   -6.1934    1.7384    0.0000 N   0  0  0  0  0  0  0  0  0  0  0  0
   -5.5426    3.2000    0.0000 C   0  0  0  0  0  0  0  0  0  0  0  0
   -4.1570    2.3999    0.0000 C   0  0  0  0  0  0  0  0  0  0  0  0
   -4.1570    0.8000    0.0000 C   0  0  0  0  0  0  0  0  0  0  0  0
   -5.5426   -0.0000    0.0000 H   0  0  0  0  0  0  0  0  0  0  0  0
   -2.7713   -0.0000    0.0000 C   0  0  0  0  0  0  0  0  0  0  0  0
   -2.7713   -1.6000    0.0000 H   0  0  0  0  0  0  0  0  0  0  0  0
   -1.3857    0.8000    0.0000 C   0  0  0  0  0  0  0  0  0  0  0  0
   -0.0001   -0.0000    0.0000 C   0  0  0  0  0  0  0  0  0  0  0  0
    1.3855   -0.7999    0.0000 C   0  0  0  0  0  0  0  0  0  0  0  0
    2.7714   -1.6000    0.0000 H   0  0  0  0  0  0  0  0  0  0  0  0
    1.6634   -2.3756    0.0000 H   0  0  0  0  0  0  0  0  0  0  0  0
    2.8891   -0.2527    0.0000 H   0  0  0  0  0  0  0  0  0  0  0  0
   -0.8001   -1.3856    0.0000 C   0  0  0  0  0  0  0  0  0  0  0  0
   -1.8285   -2.6113    0.0000 H   0  0  0  0  0  0  0  0  0  0  0  0
   -0.2527   -2.8891    0.0000 H   0  0  0  0  0  0  0  0  0  0  0  0
    0.7035   -1.9328    0.0000 H   0  0  0  0  0  0  0  0  0  0  0  0
    0.7999    1.3857    0.0000 C   0  0  0  0  0  0  0  0  0  0  0  0
    1.3473    2.8892    0.0000 H   0  0  0  0  0  0  0  0  0  0  0  0
    2.3758    1.6635    0.0000 H   0  0  0  0  0  0  0  0  0  0  0  0
    1.8286    0.1600    0.0000 H   0  0  0  0  0  0  0  0  0  0  0  0
   -1.3857    2.3999    0.0000 C   0  0  0  0  0  0  0  0  0  0  0  0
   -0.0001    3.2000    0.0000 H   0  0  0  0  0  0  0  0  0  0  0  0
   -2.7713    3.2000    0.0000 C   0  0  0  0  0  0  0  0  0  0  0  0
   -2.7713    4.7999    0.0000 O   0  0  0  0  0  0  0  0  0  0  0  0
   -1.3857    5.6000    0.0000 C   0  0  0  0  0  0  0  0  0  0  0  0
   -0.0001    6.4001    0.0000 C   0  0  0  0  0  0  0  0  0  0  0  0
    1.3855    7.1999    0.0000 H   0  0  0  0  0  0  0  0  0  0  0  0
   -0.0001    8.0000    0.0000 H   0  0  0  0  0  0  0  0  0  0  0  0
    1.3855    5.6000    0.0000 H   0  0  0  0  0  0  0  0  0  0  0  0
   -2.1857    6.9856    0.0000 H   0  0  0  0  0  0  0  0  0  0  0  0
   -0.5857    4.2144    0.0000 H   0  0  0  0  0  0  0  0  0  0  0  0
   -4.6022    4.4944    0.0000 H   0  0  0  0  0  0  0  0  0  0  0  0
   -6.7316    4.2707    0.0000 C   0  0  0  0  0  0  0  0  0  0  0  0
   -5.5426    5.3412    0.0000 H   0  0  0  0  0  0  0  0  0  0  0  0
   -7.6720    5.5650    0.0000 H   0  0  0  0  0  0  0  0  0  0  0  0
   -8.1173    3.4706    0.0000 O   0  0  0  0  0  0  0  0  0  0  0  0
   -7.7847    1.9056    0.0000 C   0  0  0  0  0  0  0  0  0  0  0  0
   -8.8552    0.7165    0.0000 C   0  0  0  0  0  0  0  0  0  0  0  0
  -10.4201    1.0492    0.0000 C   0  0  0  0  0  0  0  0  0  0  0  0
  -10.9145    2.5709    0.0000 F   0  0  0  0  0  0  0  0  0  0  0  0
  -11.4909   -0.1397    0.0000 C   0  0  0  0  0  0  0  0  0  0  0  0
  -13.0559    0.1929    0.0000 H   0  0  0  0  0  0  0  0  0  0  0  0
  -10.9963   -1.6615    0.0000 C   0  0  0  0  0  0  0  0  0  0  0  0
  -12.0671   -2.8506    0.0000 H   0  0  0  0  0  0  0  0  0  0  0  0
   -9.4313   -1.9941    0.0000 C   0  0  0  0  0  0  0  0  0  0  0  0
   -8.9369   -3.5159    0.0000 H   0  0  0  0  0  0  0  0  0  0  0  0
   -8.3608   -0.8052    0.0000 C   0  0  0  0  0  0  0  0  0  0  0  0
   -6.7956   -1.1378    0.0000 F   0  0  0  0  0  0  0  0  0  0  0  0
  1  2  1  0  0  0  0
  2  3  1  0  0  0  0
  3  4  4  0  0  0  0
  4  5  1  0  0  0  0
  4  6  4  0  0  0  0
  6  7  1  0  0  0  0
  6  8  4  0  0  0  0
  8  9  1  0  0  0  0
  9 10  1  0  0  0  0
 10 11  1  0  0  0  0
 10 12  1  0  0  0  0
 10 13  1  0  0  0  0
  9 14  1  0  0  0  0
 14 15  1  0  0  0  0
 14 16  1  0  0  0  0
 14 17  1  0  0  0  0
  9 18  1  0  0  0  0
 18 19  1  0  0  0  0
 18 20  1  0  0  0  0
 18 21  1  0  0  0  0
  8 22  4  0  0  0  0
 22 23  1  0  0  0  0
 22 24  4  0  0  0  0
 24  3  4  0  0  0  0
 24 25  1  0  0  0  0
 25 26  1  0  0  0  0
 26 27  1  0  0  0  0
 27 28  1  0  0  0  0
 27 29  1  0  0  0  0
 27 30  1  0  0  0  0
 26 31  1  0  0  0  0
 26 32  1  0  0  0  0
  2 33  1  0  0  0  0
  2 34  1  0  0  0  0
 34 35  1  0  0  0  0
 34 36  1  0  0  0  0
 34 37  1  0  0  0  0
 37 38  1  0  0  0  0
 38  1  2  0  0  0  0
 38 39  1  0  0  0  0
 39 40  4  0  0  0  0
 40 41  1  0  0  0  0
 40 42  4  0  0  0  0
 42 43  1  0  0  0  0
 42 44  4  0  0  0  0
 44 45  1  0  0  0  0
 44 46  4  0  0  0  0
 46 47  1  0  0  0  0
 46 48  4  0  0  0  0
 48 39  4  0  0  0  0
 48 49  1  0  0  0  0
M  END
> <CAS>
153233-91-1

> <NAME>
ETOXAZOLE

> <preferred_name>
Etoxazole

> <iupac>
4-(4-tert-butyl-2-ethoxyphenyl)-2-(2,6-difluorophenyl)-4,5-dihydro-1,3-oxazole

> <SMILES>
CCOc1cc(ccc1C1COC(=N1)c1c(F)cccc1F)C(C)(C)C

> <Canonical_QSARr>
CCOc1cc(ccc1C1COC(=N1)c1c(F)cccc1F)C(C)(C)C

> <InChI_Code_QSARr>
InChI=1S/C21H23F2NO2/c1-5-25-18-11-13(21(2,3)4)9-10-14(18)17-12-26-20(24-17)19-15(22)7-6-8-16(19)23/h6-11,17H,5,12H2,1-4H3

> <InChI Key_QSARr>
IXSZQYVWNJNRAL-UHFFFAOYSA-N

> <Salt_Solvent>
?

> <WS Temperature>
20

> <WS Reference>
TOMLIN,C (1997)

> <dsstox_substance_id>
DTXSID8034586

> <LogMolar>
-6.6782

$$$$
158237-07-1
  -INDIGO-01081615412D

 44 46  0  0  0  0  0  0  0  0999 V2000
    0.9479    4.2042    0.0000 C   0  0  0  0  0  0  0  0  0  0  0  0
    0.9479    2.6042    0.0000 C   0  0  0  0  0  0  0  0  0  0  0  0
    1.2256    1.0284    0.0000 N   0  0  0  0  0  0  0  0  0  0  0  0
    2.7292    0.4813    0.0000 C   0  0  0  0  0  0  0  0  0  0  0  0
    3.0071   -1.0945    0.0000 O   0  0  0  0  0  0  0  0  0  0  0  0
    3.9548    1.5097    0.0000 N   0  0  0  0  0  0  0  0  0  0  0  0
    3.8431    3.1059    0.0000 N   0  0  0  0  0  0  0  0  0  0  0  0
    5.3267    3.7052    0.0000 N   0  0  0  0  0  0  0  0  0  0  0  0
    6.3553    2.4795    0.0000 N   0  0  0  0  0  0  0  0  0  0  0  0
    7.9513    2.5911    0.0000 C   0  0  0  0  0  0  0  0  0  0  0  0
    8.6527    4.0292    0.0000 C   0  0  0  0  0  0  0  0  0  0  0  0
    7.7580    5.3556    0.0000 Cl  0  0  0  0  0  0  0  0  0  0  0  0
   10.2489    4.1407    0.0000 C   0  0  0  0  0  0  0  0  0  0  0  0
   10.9501    5.5788    0.0000 H   0  0  0  0  0  0  0  0  0  0  0  0
   11.1434    2.8143    0.0000 C   0  0  0  0  0  0  0  0  0  0  0  0
   12.7396    2.9259    0.0000 H   0  0  0  0  0  0  0  0  0  0  0  0
   10.4422    1.3763    0.0000 C   0  0  0  0  0  0  0  0  0  0  0  0
   11.3369    0.0498    0.0000 H   0  0  0  0  0  0  0  0  0  0  0  0
    8.8460    1.2646    0.0000 C   0  0  0  0  0  0  0  0  0  0  0  0
    8.1445   -0.1734    0.0000 H   0  0  0  0  0  0  0  0  0  0  0  0
    5.5073    1.1226    0.0000 C   0  0  0  0  0  0  0  0  0  0  0  0
    6.1066   -0.3609    0.0000 O   0  0  0  0  0  0  0  0  0  0  0  0
   -0.0000    0.0000    0.0000 C   0  0  0  0  0  0  0  0  0  0  0  0
   -1.6000    0.0000    0.0000 C   0  0  0  0  0  0  0  0  0  0  0  0
   -1.3223    1.5756    0.0000 H   0  0  0  0  0  0  0  0  0  0  0  0
   -3.1035    0.5473    0.0000 H   0  0  0  0  0  0  0  0  0  0  0  0
   -2.4001   -1.3857    0.0000 C   0  0  0  0  0  0  0  0  0  0  0  0
   -3.6257   -0.3572    0.0000 H   0  0  0  0  0  0  0  0  0  0  0  0
   -3.6257   -2.4140    0.0000 H   0  0  0  0  0  0  0  0  0  0  0  0
   -1.6000   -2.7712    0.0000 C   0  0  0  0  0  0  0  0  0  0  0  0
   -3.1035   -3.3185    0.0000 H   0  0  0  0  0  0  0  0  0  0  0  0
   -1.3223   -4.3470    0.0000 H   0  0  0  0  0  0  0  0  0  0  0  0
   -0.0000   -2.7712    0.0000 C   0  0  0  0  0  0  0  0  0  0  0  0
   -0.2780   -4.3470    0.0000 H   0  0  0  0  0  0  0  0  0  0  0  0
    1.5035   -3.3185    0.0000 H   0  0  0  0  0  0  0  0  0  0  0  0
    0.8001   -1.3857    0.0000 C   0  0  0  0  0  0  0  0  0  0  0  0
    2.0257   -2.4140    0.0000 H   0  0  0  0  0  0  0  0  0  0  0  0
    2.0257   -0.3572    0.0000 H   0  0  0  0  0  0  0  0  0  0  0  0
   -0.2780    1.5756    0.0000 H   0  0  0  0  0  0  0  0  0  0  0  0
   -0.6278    2.8820    0.0000 H   0  0  0  0  0  0  0  0  0  0  0  0
    2.5479    2.6042    0.0000 H   0  0  0  0  0  0  0  0  0  0  0  0
    0.9479    5.8042    0.0000 H   0  0  0  0  0  0  0  0  0  0  0  0
    2.3334    5.0041    0.0000 H   0  0  0  0  0  0  0  0  0  0  0  0
   -0.4378    5.0041    0.0000 H   0  0  0  0  0  0  0  0  0  0  0  0
  1  2  1  0  0  0  0
  2  3  1  0  0  0  0
  3  4  1  0  0  0  0
  4  5  2  0  0  0  0
  4  6  1  0  0  0  0
  6  7  1  0  0  0  0
  7  8  2  0  0  0  0
  8  9  1  0  0  0  0
  9 10  1  0  0  0  0
 10 11  4  0  0  0  0
 11 12  1  0  0  0  0
 11 13  4  0  0  0  0
 13 14  1  0  0  0  0
 13 15  4  0  0  0  0
 15 16  1  0  0  0  0
 15 17  4  0  0  0  0
 17 18  1  0  0  0  0
 17 19  4  0  0  0  0
 19 10  4  0  0  0  0
 19 20  1  0  0  0  0
  9 21  1  0  0  0  0
 21  6  1  0  0  0  0
 21 22  2  0  0  0  0
  3 23  1  0  0  0  0
 23 24  1  0  0  0  0
 24 25  1  0  0  0  0
 24 26  1  0  0  0  0
 24 27  1  0  0  0  0
 27 28  1  0  0  0  0
 27 29  1  0  0  0  0
 27 30  1  0  0  0  0
 30 31  1  0  0  0  0
 30 32  1  0  0  0  0
 30 33  1  0  0  0  0
 33 34  1  0  0  0  0
 33 35  1  0  0  0  0
 33 36  1  0  0  0  0
 36 23  1  0  0  0  0
 36 37  1  0  0  0  0
 36 38  1  0  0  0  0
 23 39  1  0  0  0  0
  2 40  1  0  0  0  0
  2 41  1  0  0  0  0
  1 42  1  0  0  0  0
  1 43  1  0  0  0  0
  1 44  1  0  0  0  0
M  END
> <CAS>
158237-07-1

> <NAME>
FENTRAZAMIDE

> <preferred_name>
Fentrazamide

> <iupac>
4-(2-chlorophenyl)-N-cyclohexyl-N-ethyl-5-oxo-4,5-dihydro-1H-tetrazole-1-carboxamide

> <SMILES>
CCN(C1CCCCC1)C(=O)N1N=NN(c2ccccc2Cl)C1=O

> <Canonical_QSARr>
CCN(C1CCCCC1)C(=O)N1N=NN(c2ccccc2Cl)C1=O

> <InChI_Code_QSARr>
InChI=1S/C16H20ClN5O2/c1-2-20(12-8-4-3-5-9-12)15(23)22-16(24)21(18-19-22)14-11-7-6-10-13(14)17/h6-7,10-12H,2-5,8-9H2,1H3

> <InChI Key_QSARr>
LLQPHQFNMLZJMP-UHFFFAOYSA-N

> <Salt_Solvent>
?

> <WS Temperature>
20

> <WS Reference>
WSSA (1998)

> <dsstox_substance_id>
DTXSID8057988

> <LogMolar>
-5.1821

$$$$
160790-06-7
  -INDIGO-01081615412D

 31 32  0  0  0  0  0  0  0  0999 V2000
   -7.8785    1.3891    0.0000 Br  0  0  0  0  0  0  0  0  0  0  0  0
   -6.3028    1.1113    0.0000 C   0  0  0  0  0  0  0  0  0  0  0  0
   -5.2742    2.3370    0.0000 C   0  0  0  0  0  0  0  0  0  0  0  0
   -5.8216    3.8405    0.0000 H   0  0  0  0  0  0  0  0  0  0  0  0
   -3.6986    2.0592    0.0000 C   0  0  0  0  0  0  0  0  0  0  0  0
   -2.6702    3.2849    0.0000 H   0  0  0  0  0  0  0  0  0  0  0  0
   -3.1514    0.5557    0.0000 C   0  0  0  0  0  0  0  0  0  0  0  0
   -1.5758    0.2779    0.0000 S   0  0  0  0  0  0  0  0  0  0  0  0
   -0.0001   -0.0000    0.0000 C   0  0  0  0  0  0  0  0  0  0  0  0
    0.7999    1.3856    0.0000 C   0  0  0  0  0  0  0  0  0  0  0  0
   -0.0001    2.7712    0.0000 O   0  0  0  0  0  0  0  0  0  0  0  0
    2.3756    1.6635    0.0000 O   0  0  0  0  0  0  0  0  0  0  0  0
    2.9229    3.1670    0.0000 C   0  0  0  0  0  0  0  0  0  0  0  0
    3.4701    4.6705    0.0000 H   0  0  0  0  0  0  0  0  0  0  0  0
    1.8944    4.3927    0.0000 H   0  0  0  0  0  0  0  0  0  0  0  0
    4.4986    3.4448    0.0000 H   0  0  0  0  0  0  0  0  0  0  0  0
   -0.7999   -1.3857    0.0000 C   0  0  0  0  0  0  0  0  0  0  0  0
   -1.8536   -1.2979    0.0000 H   0  0  0  0  0  0  0  0  0  0  0  0
   -1.5999   -2.7713    0.0000 H   0  0  0  0  0  0  0  0  0  0  0  0
    0.5856   -2.1856    0.0000 C   0  0  0  0  0  0  0  0  0  0  0  0
   -0.2144   -3.5713    0.0000 H   0  0  0  0  0  0  0  0  0  0  0  0
    1.9713   -2.9856    0.0000 H   0  0  0  0  0  0  0  0  0  0  0  0
    1.3856   -0.8000    0.0000 C   0  0  0  0  0  0  0  0  0  0  0  0
    2.7713   -1.6000    0.0000 H   0  0  0  0  0  0  0  0  0  0  0  0
    2.1856    0.5856    0.0000 H   0  0  0  0  0  0  0  0  0  0  0  0
   -2.1856   -0.5856    0.0000 O   0  0  0  0  0  0  0  0  0  0  0  0
   -1.2979    1.8536    0.0000 O   0  0  0  0  0  0  0  0  0  0  0  0
   -4.1798   -0.6700    0.0000 C   0  0  0  0  0  0  0  0  0  0  0  0
   -3.6327   -2.1736    0.0000 H   0  0  0  0  0  0  0  0  0  0  0  0
   -5.7555   -0.3922    0.0000 C   0  0  0  0  0  0  0  0  0  0  0  0
   -6.7840   -1.6178    0.0000 H   0  0  0  0  0  0  0  0  0  0  0  0
  1  2  1  0  0  0  0
  2  3  4  0  0  0  0
  3  4  1  0  0  0  0
  3  5  4  0  0  0  0
  5  6  1  0  0  0  0
  5  7  4  0  0  0  0
  7  8  1  0  0  0  0
  8  9  1  0  0  0  0
  9 10  1  0  0  0  0
 10 11  2  0  0  0  0
 10 12  1  0  0  0  0
 12 13  1  0  0  0  0
 13 14  1  0  0  0  0
 13 15  1  0  0  0  0
 13 16  1  0  0  0  0
  9 17  1  0  0  0  0
 17 18  1  0  0  0  0
 17 19  1  0  0  0  0
 17 20  1  0  0  0  0
 20 21  1  0  0  0  0
 20 22  1  0  0  0  0
 20 23  1  0  0  0  0
 23  9  1  0  0  0  0
 23 24  1  0  0  0  0
 23 25  1  0  0  0  0
  8 26  2  0  0  0  0
  8 27  2  0  0  0  0
  7 28  4  0  0  0  0
 28 29  1  0  0  0  0
 28 30  4  0  0  0  0
 30  2  4  0  0  0  0
 30 31  1  0  0  0  0
M  END
> <CAS>
160790-06-7

> <NAME>
Me (1-(4-bromo)phenylsulfonyl) cyclobutane carbo

> <preferred_name>
Cyclobutanecarboxylic acid, 1-((4-bromophenyl)sulfonyl)-, methyl ester

> <iupac>
methyl 1-(4-bromophenyl)sulfonylcyclobutane-1-carboxylate

> <SMILES>
COC(=O)C1(CCC1)S(=O)(=O)c1ccc(Br)cc1

> <Canonical_QSARr>
COC(=O)C1(CCC1)S(=O)(=O)c1ccc(Br)cc1

> <InChI_Code_QSARr>
InChI=1S/C12H13BrO4S/c1-17-11(14)12(7-2-8-12)18(15,16)10-5-3-9(13)4-6-10/h3-6H,2,7-8H2,1H3

> <InChI Key_QSARr>
DXGXTGYXCFBYDJ-UHFFFAOYSA-N

> <Salt_Solvent>
?

> <WS Temperature>
25

> <WS Reference>
HE,Y ET AL. (1995B)

> <dsstox_substance_id>
DTXSID40166992

> <LogMolar>
-3.55

$$$$
160790-10-3
  -INDIGO-01081615412D

 40 41  0  0  0  0  0  0  0  0999 V2000
   -7.2909    3.2453    0.0000 Cl  0  0  0  0  0  0  0  0  0  0  0  0
   -5.8074    2.6460    0.0000 C   0  0  0  0  0  0  0  0  0  0  0  0
   -5.5846    1.0616    0.0000 C   0  0  0  0  0  0  0  0  0  0  0  0
   -6.8456    0.0765    0.0000 H   0  0  0  0  0  0  0  0  0  0  0  0
   -4.1012    0.4622    0.0000 C   0  0  0  0  0  0  0  0  0  0  0  0
   -3.8785   -1.1223    0.0000 H   0  0  0  0  0  0  0  0  0  0  0  0
   -2.8404    1.4473    0.0000 C   0  0  0  0  0  0  0  0  0  0  0  0
   -1.3570    0.8478    0.0000 S   0  0  0  0  0  0  0  0  0  0  0  0
   -0.0000    0.0000    0.0000 C   0  0  0  0  0  0  0  0  0  0  0  0
    0.9405    1.2944    0.0000 C   0  0  0  0  0  0  0  0  0  0  0  0
    0.2896    2.7561    0.0000 O   0  0  0  0  0  0  0  0  0  0  0  0
    2.4929    1.6815    0.0000 O   0  0  0  0  0  0  0  0  0  0  0  0
    2.9340    3.2195    0.0000 C   0  0  0  0  0  0  0  0  0  0  0  0
    3.3750    4.7576    0.0000 C   0  0  0  0  0  0  0  0  0  0  0  0
    3.8160    6.2956    0.0000 H   0  0  0  0  0  0  0  0  0  0  0  0
    4.9274    5.1445    0.0000 H   0  0  0  0  0  0  0  0  0  0  0  0
    2.2636    5.9085    0.0000 H   0  0  0  0  0  0  0  0  0  0  0  0
    4.4720    2.7785    0.0000 C   0  0  0  0  0  0  0  0  0  0  0  0
    6.0100    2.3374    0.0000 H   0  0  0  0  0  0  0  0  0  0  0  0
    5.6229    3.8900    0.0000 H   0  0  0  0  0  0  0  0  0  0  0  0
    4.8590    1.2261    0.0000 H   0  0  0  0  0  0  0  0  0  0  0  0
    1.3959    3.6605    0.0000 H   0  0  0  0  0  0  0  0  0  0  0  0
   -1.1891   -1.0706    0.0000 C   0  0  0  0  0  0  0  0  0  0  0  0
   -1.9563   -0.6356    0.0000 H   0  0  0  0  0  0  0  0  0  0  0  0
   -2.5747   -1.8706    0.0000 H   0  0  0  0  0  0  0  0  0  0  0  0
   -0.5382   -2.5322    0.0000 C   0  0  0  0  0  0  0  0  0  0  0  0
   -2.0600   -3.0267    0.0000 H   0  0  0  0  0  0  0  0  0  0  0  0
   -0.2056   -4.0973    0.0000 H   0  0  0  0  0  0  0  0  0  0  0  0
    1.0529   -2.3651    0.0000 C   0  0  0  0  0  0  0  0  0  0  0  0
    1.0529   -3.9651    0.0000 H   0  0  0  0  0  0  0  0  0  0  0  0
    2.6441   -2.5322    0.0000 H   0  0  0  0  0  0  0  0  0  0  0  0
    1.3856   -0.8000    0.0000 C   0  0  0  0  0  0  0  0  0  0  0  0
    2.9074   -1.2945    0.0000 H   0  0  0  0  0  0  0  0  0  0  0  0
    2.0365    0.6617    0.0000 H   0  0  0  0  0  0  0  0  0  0  0  0
   -0.7574    2.3314    0.0000 O   0  0  0  0  0  0  0  0  0  0  0  0
   -2.0385    0.2884    0.0000 O   0  0  0  0  0  0  0  0  0  0  0  0
   -3.0630    3.0317    0.0000 C   0  0  0  0  0  0  0  0  0  0  0  0
   -1.8023    4.0167    0.0000 H   0  0  0  0  0  0  0  0  0  0  0  0
   -4.5465    3.6310    0.0000 C   0  0  0  0  0  0  0  0  0  0  0  0
   -4.7693    5.2154    0.0000 H   0  0  0  0  0  0  0  0  0  0  0  0
  1  2  1  0  0  0  0
  2  3  4  0  0  0  0
  3  4  1  0  0  0  0
  3  5  4  0  0  0  0
  5  6  1  0  0  0  0
  5  7  4  0  0  0  0
  7  8  1  0  0  0  0
  8  9  1  0  0  0  0
  9 10  1  0  0  0  0
 10 11  2  0  0  0  0
 10 12  1  0  0  0  0
 12 13  1  0  0  0  0
 13 14  1  0  0  0  0
 14 15  1  0  0  0  0
 14 16  1  0  0  0  0
 14 17  1  0  0  0  0
 13 18  1  0  0  0  0
 18 19  1  0  0  0  0
 18 20  1  0  0  0  0
 18 21  1  0  0  0  0
 13 22  1  0  0  0  0
  9 23  1  0  0  0  0
 23 24  1  0  0  0  0
 23 25  1  0  0  0  0
 23 26  1  0  0  0  0
 26 27  1  0  0  0  0
 26 28  1  0  0  0  0
 26 29  1  0  0  0  0
 29 30  1  0  0  0  0
 29 31  1  0  0  0  0
 29 32  1  0  0  0  0
 32  9  1  0  0  0  0
 32 33  1  0  0  0  0
 32 34  1  0  0  0  0
  8 35  2  0  0  0  0
  8 36  2  0  0  0  0
  7 37  4  0  0  0  0
 37 38  1  0  0  0  0
 37 39  4  0  0  0  0
 39  2  4  0  0  0  0
 39 40  1  0  0  0  0
M  END
> <CAS>
160790-10-3

> <NAME>
Isopropyl (1-(4-chloro)phenylsulfonyl) cyclopent

> <preferred_name>
Cyclopentanecarboxylic acid, 1-((4-chlorophenyl)sulfonyl)-, 1-methylethyl ester

> <iupac>
propan-2-yl 1-(4-chlorophenyl)sulfonylcyclopentane-1-carboxylate

> <SMILES>
CC(C)OC(=O)C1(CCCC1)S(=O)(=O)c1ccc(Cl)cc1

> <Canonical_QSARr>
CC(C)OC(=O)C1(CCCC1)S(=O)(=O)c1ccc(Cl)cc1

> <InChI_Code_QSARr>
InChI=1S/C15H19ClO4S/c1-11(2)20-14(17)15(9-3-4-10-15)21(18,19)13-7-5-12(16)6-8-13/h5-8,11H,3-4,9-10H2,1-2H3

> <InChI Key_QSARr>
AWDYZLGQTRYRJA-UHFFFAOYSA-N

> <Salt_Solvent>
?

> <WS Temperature>
25

> <WS Reference>
HE,Y ET AL. (1995B)

> <dsstox_substance_id>
DTXSID80166996

> <LogMolar>
-4.6498

$$$$
160790-19-2
  -INDIGO-01081615412D

 37 38  0  0  0  0  0  0  0  0999 V2000
   -1.5757    0.2778    0.0000 S   0  0  0  0  0  0  0  0  0  0  0  0
   -3.1514    0.5556    0.0000 C   0  0  0  0  0  0  0  0  0  0  0  0
   -4.1798   -0.6700    0.0000 C   0  0  0  0  0  0  0  0  0  0  0  0
   -3.6327   -2.1735    0.0000 H   0  0  0  0  0  0  0  0  0  0  0  0
   -5.7555   -0.3922    0.0000 C   0  0  0  0  0  0  0  0  0  0  0  0
   -6.7840   -1.6179    0.0000 H   0  0  0  0  0  0  0  0  0  0  0  0
   -6.3028    1.1114    0.0000 C   0  0  0  0  0  0  0  0  0  0  0  0
   -7.8785    1.3891    0.0000 H   0  0  0  0  0  0  0  0  0  0  0  0
   -5.2744    2.3370    0.0000 C   0  0  0  0  0  0  0  0  0  0  0  0
   -5.8215    3.8405    0.0000 H   0  0  0  0  0  0  0  0  0  0  0  0
   -3.6985    2.0592    0.0000 C   0  0  0  0  0  0  0  0  0  0  0  0
   -2.6702    3.2849    0.0000 H   0  0  0  0  0  0  0  0  0  0  0  0
   -0.0001    0.0000    0.0000 C   0  0  0  0  0  0  0  0  0  0  0  0
    0.2778    1.5756    0.0000 C   0  0  0  0  0  0  0  0  0  0  0  0
   -0.7506    2.8013    0.0000 O   0  0  0  0  0  0  0  0  0  0  0  0
    1.5035    2.6042    0.0000 O   0  0  0  0  0  0  0  0  0  0  0  0
    1.5035    4.2042    0.0000 C   0  0  0  0  0  0  0  0  0  0  0  0
    1.5035    5.8042    0.0000 H   0  0  0  0  0  0  0  0  0  0  0  0
    2.8891    5.0041    0.0000 H   0  0  0  0  0  0  0  0  0  0  0  0
    0.1179    5.0041    0.0000 H   0  0  0  0  0  0  0  0  0  0  0  0
   -0.8001   -1.3857    0.0000 C   0  0  0  0  0  0  0  0  0  0  0  0
   -1.8536   -1.2978    0.0000 H   0  0  0  0  0  0  0  0  0  0  0  0
   -2.0257   -2.4142    0.0000 H   0  0  0  0  0  0  0  0  0  0  0  0
   -0.0001   -2.7712    0.0000 C   0  0  0  0  0  0  0  0  0  0  0  0
   -1.5035   -3.3185    0.0000 H   0  0  0  0  0  0  0  0  0  0  0  0
    0.2778   -4.3470    0.0000 H   0  0  0  0  0  0  0  0  0  0  0  0
    1.6000   -2.7712    0.0000 C   0  0  0  0  0  0  0  0  0  0  0  0
    1.3222   -4.3470    0.0000 H   0  0  0  0  0  0  0  0  0  0  0  0
    3.1034   -3.3185    0.0000 H   0  0  0  0  0  0  0  0  0  0  0  0
    2.4000   -1.3857    0.0000 C   0  0  0  0  0  0  0  0  0  0  0  0
    3.6256   -2.4142    0.0000 H   0  0  0  0  0  0  0  0  0  0  0  0
    3.7856   -0.5856    0.0000 H   0  0  0  0  0  0  0  0  0  0  0  0
    1.6000    0.0000    0.0000 C   0  0  0  0  0  0  0  0  0  0  0  0
    3.1034    0.5473    0.0000 H   0  0  0  0  0  0  0  0  0  0  0  0
    1.8778    1.5756    0.0000 H   0  0  0  0  0  0  0  0  0  0  0  0
   -2.1857   -0.5856    0.0000 O   0  0  0  0  0  0  0  0  0  0  0  0
   -1.2979    1.8535    0.0000 O   0  0  0  0  0  0  0  0  0  0  0  0
  1  2  1  0  0  0  0
  2  3  4  0  0  0  0
  3  4  1  0  0  0  0
  3  5  4  0  0  0  0
  5  6  1  0  0  0  0
  5  7  4  0  0  0  0
  7  8  1  0  0  0  0
  7  9  4  0  0  0  0
  9 10  1  0  0  0  0
  9 11  4  0  0  0  0
 11  2  4  0  0  0  0
 11 12  1  0  0  0  0
  1 13  1  0  0  0  0
 13 14  1  0  0  0  0
 14 15  2  0  0  0  0
 14 16  1  0  0  0  0
 16 17  1  0  0  0  0
 17 18  1  0  0  0  0
 17 19  1  0  0  0  0
 17 20  1  0  0  0  0
 13 21  1  0  0  0  0
 21 22  1  0  0  0  0
 21 23  1  0  0  0  0
 21 24  1  0  0  0  0
 24 25  1  0  0  0  0
 24 26  1  0  0  0  0
 24 27  1  0  0  0  0
 27 28  1  0  0  0  0
 27 29  1  0  0  0  0
 27 30  1  0  0  0  0
 30 31  1  0  0  0  0
 30 32  1  0  0  0  0
 30 33  1  0  0  0  0
 33 13  1  0  0  0  0
 33 34  1  0  0  0  0
 33 35  1  0  0  0  0
  1 36  2  0  0  0  0
  1 37  2  0  0  0  0
M  END
> <CAS>
160790-19-2

> <NAME>
Methyl (1-phenylsulfonyl) cyclohexane carboxylat

> <preferred_name>
Cyclohexanecarboxylic acid, 1-(phenylsulfonyl)-, methyl ester

> <iupac>
methyl 1-phenylsulfonylcyclohexane-1-carboxylate

> <SMILES>
COC(=O)C1(CCCCC1)S(=O)(=O)c1ccccc1

> <Canonical_QSARr>
COC(=O)C1(CCCCC1)S(=O)(=O)c1ccccc1

> <InChI_Code_QSARr>
InChI=1S/C14H18O4S/c1-18-13(15)14(10-6-3-7-11-14)19(16,17)12-8-4-2-5-9-12/h2,4-5,8-9H,3,6-7,10-11H2,1H3

> <InChI Key_QSARr>
QKXWKAIGVBVCPM-UHFFFAOYSA-N

> <Salt_Solvent>
?

> <WS Temperature>
25

> <WS Reference>
HE,Y ET AL. (1995B)

> <dsstox_substance_id>
DTXSID40167005

> <LogMolar>
-2.8498

$$$$
162853-25-0
  -INDIGO-01081615412D

 23 24  0  0  0  0  0  0  0  0999 V2000
    1.6000    0.0001    0.0000 O   0  0  0  0  0  0  0  0  0  0  0  0
    2.9857   -0.8000    0.0000 C   0  0  0  0  0  0  0  0  0  0  0  0
    2.9857   -2.4000    0.0000 C   0  0  0  0  0  0  0  0  0  0  0  0
    1.6000   -3.2000    0.0000 H   0  0  0  0  0  0  0  0  0  0  0  0
    4.3714   -3.2000    0.0000 C   0  0  0  0  0  0  0  0  0  0  0  0
    4.3714   -4.8000    0.0000 H   0  0  0  0  0  0  0  0  0  0  0  0
    5.7569   -2.4000    0.0000 C   0  0  0  0  0  0  0  0  0  0  0  0
    7.1426   -3.2000    0.0000 H   0  0  0  0  0  0  0  0  0  0  0  0
    5.7569   -0.8000    0.0000 C   0  0  0  0  0  0  0  0  0  0  0  0
    7.1426    0.0001    0.0000 H   0  0  0  0  0  0  0  0  0  0  0  0
    4.3714    0.0001    0.0000 C   0  0  0  0  0  0  0  0  0  0  0  0
    4.3714    1.6000    0.0000 H   0  0  0  0  0  0  0  0  0  0  0  0
   -0.0000    0.0001    0.0000 C   0  0  0  0  0  0  0  0  0  0  0  0
   -0.8000    1.3856    0.0000 C   0  0  0  0  0  0  0  0  0  0  0  0
   -0.0000    2.7713    0.0000 Cl  0  0  0  0  0  0  0  0  0  0  0  0
   -2.4000    1.3856    0.0000 C   0  0  0  0  0  0  0  0  0  0  0  0
   -3.2000    2.7713    0.0000 Cl  0  0  0  0  0  0  0  0  0  0  0  0
   -3.2000    0.0001    0.0000 C   0  0  0  0  0  0  0  0  0  0  0  0
   -4.8000    0.0001    0.0000 H   0  0  0  0  0  0  0  0  0  0  0  0
   -2.4000   -1.3856    0.0000 C   0  0  0  0  0  0  0  0  0  0  0  0
   -3.2000   -2.7713    0.0000 H   0  0  0  0  0  0  0  0  0  0  0  0
   -0.8000   -1.3856    0.0000 C   0  0  0  0  0  0  0  0  0  0  0  0
   -0.0000   -2.7713    0.0000 Cl  0  0  0  0  0  0  0  0  0  0  0  0
  1  2  1  0  0  0  0
  2  3  4  0  0  0  0
  3  4  1  0  0  0  0
  3  5  4  0  0  0  0
  5  6  1  0  0  0  0
  5  7  4  0  0  0  0
  7  8  1  0  0  0  0
  7  9  4  0  0  0  0
  9 10  1  0  0  0  0
  9 11  4  0  0  0  0
 11  2  4  0  0  0  0
 11 12  1  0  0  0  0
  1 13  1  0  0  0  0
 13 14  4  0  0  0  0
 14 15  1  0  0  0  0
 14 16  4  0  0  0  0
 16 17  1  0  0  0  0
 16 18  4  0  0  0  0
 18 19  1  0  0  0  0
 18 20  4  0  0  0  0
 20 21  1  0  0  0  0
 20 22  4  0  0  0  0
 22 13  4  0  0  0  0
 22 23  1  0  0  0  0
M  END
> <CAS>
162853-25-0

> <NAME>
2,3,6-Trichlorodiphenyl ether

> <preferred_name>


> <iupac>


> <SMILES>
Clc1c(Oc2ccccc2)c(Cl)ccc1Cl

> <Canonical_QSARr>
Clc1c(Oc2ccccc2)c(Cl)ccc1Cl

> <InChI_Code_QSARr>
InChI=1S/C12H7Cl3O/c13-9-6-7-10(14)12(11(9)15)16-8-4-2-1-3-5-8/h1-7H

> <InChI Key_QSARr>
RQSRPDGSUDRYLH-UHFFFAOYSA-N

> <Salt_Solvent>
?

> <WS Temperature>
25

> <WS Reference>
KURZ,J & BALLSCHMITER,K (1999)

> <dsstox_substance_id>


> <LogMolar>
-5.9499

$$$$
SRC003-41-9
  -INDIGO-01081615412D

 15 15  0  0  0  0  0  0  0  0999 V2000
   -3.2000    2.7713    0.0000 Br  0  0  0  0  0  0  0  0  0  0  0  0
   -2.4000    1.3856    0.0000 C   0  0  0  0  0  0  0  0  0  0  0  0
   -3.2000   -0.0000    0.0000 C   0  0  0  0  0  0  0  0  0  0  0  0
   -4.8000   -0.0000    0.0000 H   0  0  0  0  0  0  0  0  0  0  0  0
   -2.4000   -1.3856    0.0000 C   0  0  0  0  0  0  0  0  0  0  0  0
   -3.2000   -2.7713    0.0000 O   0  0  0  0  0  0  0  0  0  0  0  0
   -4.8000   -2.7713    0.0000 H   0  0  0  0  0  0  0  0  0  0  0  0
   -0.8000   -1.3856    0.0000 C   0  0  0  0  0  0  0  0  0  0  0  0
    0.0000   -2.7713    0.0000 H   0  0  0  0  0  0  0  0  0  0  0  0
    0.0000    0.0000    0.0000 C   0  0  0  0  0  0  0  0  0  0  0  0
    1.6000    0.0000    0.0000 C   0  0  0  0  0  0  0  0  0  0  0  0
    2.4000    1.3856    0.0000 O   0  0  0  0  0  0  0  0  0  0  0  0
    2.4000   -1.3856    0.0000 H   0  0  0  0  0  0  0  0  0  0  0  0
   -0.8000    1.3856    0.0000 C   0  0  0  0  0  0  0  0  0  0  0  0
    0.0000    2.7713    0.0000 H   0  0  0  0  0  0  0  0  0  0  0  0
  1  2  1  0  0  0  0
  2  3  4  0  0  0  0
  3  4  1  0  0  0  0
  3  5  4  0  0  0  0
  5  6  1  0  0  0  0
  6  7  1  0  0  0  0
  5  8  4  0  0  0  0
  8  9  1  0  0  0  0
  8 10  4  0  0  0  0
 10 11  1  0  0  0  0
 11 12  2  0  0  0  0
 11 13  1  0  0  0  0
 10 14  4  0  0  0  0
 14  2  4  0  0  0  0
 14 15  1  0  0  0  0
M  END
> <CAS>
SRC003-41-9

> <NAME>
5-Bromo-3-hydroxybenzaldehyde

> <preferred_name>
PUBCHEM_16641084

> <iupac>
C7H5BrO2

> <SMILES>
Oc1cc(C=O)cc(Br)c1

> <Canonical_QSARr>
Oc1cc(C=O)cc(Br)c1

> <InChI_Code_QSARr>
InChI=1S/C7H5BrO2/c8-6-1-5(4-9)2-7(10)3-6/h1-4,10H

> <InChI Key_QSARr>
XVFGERBEZKEGSS-UHFFFAOYSA-N

> <Salt_Solvent>
?

> <WS Temperature>
25

> <WS Reference>
JIN,LJ ET AL. (1998)

> <dsstox_substance_id>
DTXSID90586363

> <LogMolar>
-3.2502

$$$$
