100004
  -INDIGO-08031722522D

 28 29  0  0  0  0  0  0  0  0999 V2000
   -1.3856    0.8000    0.0000 Cl  0  0  0  0  0  0  0  0  0  0  0  0
    0.0001    1.6001    0.0000 C   0  0  0  0  0  0  0  0  0  0  0  0
    0.0001    0.0000    0.0000 C   0  0  0  0  0  0  0  0  0  0  0  0
    0.0001   -1.6000    0.0000 H   0  0  0  0  0  0  0  0  0  0  0  0
   -1.5034   -0.5472    0.0000 C   0  0  0  0  0  0  0  0  0  0  0  0
   -2.7292    0.4813    0.0000 C   0  0  0  0  0  0  0  0  0  0  0  0
   -2.4513    2.0569    0.0000 H   0  0  0  0  0  0  0  0  0  0  0  0
   -4.2327   -0.0660    0.0000 C   0  0  0  0  0  0  0  0  0  0  0  0
   -5.4584    0.9624    0.0000 H   0  0  0  0  0  0  0  0  0  0  0  0
   -4.5106   -1.6416    0.0000 C   0  0  0  0  0  0  0  0  0  0  0  0
   -6.0140   -2.1889    0.0000 Cl  0  0  0  0  0  0  0  0  0  0  0  0
   -3.2848   -2.6701    0.0000 C   0  0  0  0  0  0  0  0  0  0  0  0
   -3.5627   -4.2459    0.0000 H   0  0  0  0  0  0  0  0  0  0  0  0
   -1.7813   -2.1229    0.0000 C   0  0  0  0  0  0  0  0  0  0  0  0
   -0.5557   -3.1514    0.0000 H   0  0  0  0  0  0  0  0  0  0  0  0
    1.5999    0.0000    0.0000 C   0  0  0  0  0  0  0  0  0  0  0  0
    2.4001    1.3857    0.0000 C   0  0  0  0  0  0  0  0  0  0  0  0
    1.5999    2.7713    0.0000 H   0  0  0  0  0  0  0  0  0  0  0  0
    4.0000    1.3857    0.0000 C   0  0  0  0  0  0  0  0  0  0  0  0
    4.7999    2.7713    0.0000 H   0  0  0  0  0  0  0  0  0  0  0  0
    4.7999    0.0000    0.0000 C   0  0  0  0  0  0  0  0  0  0  0  0
    6.4000    0.0000    0.0000 Cl  0  0  0  0  0  0  0  0  0  0  0  0
    4.0000   -1.3857    0.0000 C   0  0  0  0  0  0  0  0  0  0  0  0
    4.7999   -2.7712    0.0000 H   0  0  0  0  0  0  0  0  0  0  0  0
    2.4001   -1.3857    0.0000 C   0  0  0  0  0  0  0  0  0  0  0  0
    1.5999   -2.7712    0.0000 H   0  0  0  0  0  0  0  0  0  0  0  0
    0.0001    3.2000    0.0000 Cl  0  0  0  0  0  0  0  0  0  0  0  0
   -1.3856    2.4000    0.0000 Cl  0  0  0  0  0  0  0  0  0  0  0  0
  1  2  1  0  0  0  0
  2  3  1  0  0  0  0
  3  4  1  0  0  0  0
  3  5  1  0  0  0  0
  5  6  1  0  0  0  0
  6  7  1  0  0  0  0
  6  8  2  0  0  0  0
  8  9  1  0  0  0  0
  8 10  1  0  0  0  0
 10 11  1  0  0  0  0
 10 12  2  0  0  0  0
 12 13  1  0  0  0  0
 12 14  1  0  0  0  0
 14  5  2  0  0  0  0
 14 15  1  0  0  0  0
  3 16  1  0  0  0  0
 16 17  1  0  0  0  0
 17 18  1  0  0  0  0
 17 19  2  0  0  0  0
 19 20  1  0  0  0  0
 19 21  1  0  0  0  0
 21 22  1  0  0  0  0
 21 23  2  0  0  0  0
 23 24  1  0  0  0  0
 23 25  1  0  0  0  0
 25 16  2  0  0  0  0
 25 26  1  0  0  0  0
  2 27  1  0  0  0  0
  2 28  1  0  0  0  0
M  END
> <ChemID>
100004

> <source_casrn>
50-29-3

> <CAS>
50-29-3

> <SMILES>
ClC(Cl)(Cl)C(c1ccc(Cl)cc1)c1ccc(Cl)cc1

> <NAME>
DDT

> <preferred_name>
p,p'-DDT

> <iupac>
1,1'-(2,2,2-trichloroethane-1,1-diyl)bis(4-chlorobenzene)

> <MPID>
100020

> <dsstox_substance_id>
DTXSID4020375

> <Canonical_QSARr>
ClC(Cl)(Cl)C(c1ccc(Cl)cc1)c1ccc(Cl)cc1

> <InChI_Code_QSARr>
InChI=1S/C14H9Cl5/c15-11-5-1-9(2-6-11)13(14(17,18)19)10-3-7-12(16)8-4-10/h1-8,13H

> <InChI Key_QSARr>
YVGGHNCTFXOJCH-UHFFFAOYSA-N

> <Salt_Solvent>
?

> <Ready_Biodeg>
0.0

$$$$
100008
  -INDIGO-08031722522D

 21 21  0  0  0  0  0  0  0  0999 V2000
    0.0000    2.7713    0.0000 O   0  0  0  0  0  0  0  0  0  0  0  0
    0.8000    4.1569    0.0000 H   0  0  0  0  0  0  0  0  0  0  0  0
    0.8000    1.3856    0.0000 C   0  0  0  0  0  0  0  0  0  0  0  0
    2.4000    1.3856    0.0000 O   0  0  0  0  0  0  0  0  0  0  0  0
    0.0000    0.0001    0.0000 C   0  0  0  0  0  0  0  0  0  0  0  0
    0.8000   -1.3856    0.0000 C   0  0  0  0  0  0  0  0  0  0  0  0
    2.4000   -1.3856    0.0000 O   0  0  0  0  0  0  0  0  0  0  0  0
    3.1999   -2.7712    0.0000 C   0  0  0  0  0  0  0  0  0  0  0  0
    2.4000   -4.1569    0.0000 O   0  0  0  0  0  0  0  0  0  0  0  0
    4.8000   -2.7713    0.0000 C   0  0  0  0  0  0  0  0  0  0  0  0
    6.4000   -2.7713    0.0000 H   0  0  0  0  0  0  0  0  0  0  0  0
    5.6000   -4.1569    0.0000 H   0  0  0  0  0  0  0  0  0  0  0  0
    5.6000   -1.3856    0.0000 H   0  0  0  0  0  0  0  0  0  0  0  0
    0.0000   -2.7712    0.0000 C   0  0  0  0  0  0  0  0  0  0  0  0
    0.8000   -4.1569    0.0000 H   0  0  0  0  0  0  0  0  0  0  0  0
   -1.6001   -2.7712    0.0000 C   0  0  0  0  0  0  0  0  0  0  0  0
   -2.4000   -4.1569    0.0000 H   0  0  0  0  0  0  0  0  0  0  0  0
   -2.4000   -1.3856    0.0000 C   0  0  0  0  0  0  0  0  0  0  0  0
   -4.0000   -1.3856    0.0000 H   0  0  0  0  0  0  0  0  0  0  0  0
   -1.6001    0.0001    0.0000 C   0  0  0  0  0  0  0  0  0  0  0  0
   -2.4000    1.3856    0.0000 H   0  0  0  0  0  0  0  0  0  0  0  0
  1  2  1  0  0  0  0
  1  3  1  0  0  0  0
  3  4  2  0  0  0  0
  3  5  1  0  0  0  0
  5  6  1  0  0  0  0
  6  7  1  0  0  0  0
  7  8  1  0  0  0  0
  8  9  2  0  0  0  0
  8 10  1  0  0  0  0
 10 11  1  0  0  0  0
 10 12  1  0  0  0  0
 10 13  1  0  0  0  0
  6 14  2  0  0  0  0
 14 15  1  0  0  0  0
 14 16  1  0  0  0  0
 16 17  1  0  0  0  0
 16 18  2  0  0  0  0
 18 19  1  0  0  0  0
 18 20  1  0  0  0  0
 20  5  2  0  0  0  0
 20 21  1  0  0  0  0
M  END
> <ChemID>
100008

> <source_casrn>
50-78-2

> <CAS>
50-78-2

> <SMILES>
CC(=O)Oc1ccccc1C(O)=O

> <NAME>
Acetylsalicylic acid

> <preferred_name>
Aspirin

> <iupac>
2-(acetyloxy)benzoic acid

> <MPID>
100024

> <dsstox_substance_id>
DTXSID5020108

> <Canonical_QSARr>
CC(=O)Oc1ccccc1C(O)=O

> <InChI_Code_QSARr>
InChI=1S/C9H8O4/c1-6(10)13-8-5-3-2-4-7(8)9(11)12/h2-5H,1H3,(H,11,12)

> <InChI Key_QSARr>
BSYNRYMUTXBXSQ-UHFFFAOYSA-N

> <Salt_Solvent>
?

> <Ready_Biodeg>
1.0

$$$$
100012
  -INDIGO-08031722522D

 17 17  0  0  0  0  0  0  0  0999 V2000
    1.3856   -2.4000    0.0000 O   0  0  0  0  0  0  0  0  0  0  0  0
    1.3856   -4.0000    0.0000 H   0  0  0  0  0  0  0  0  0  0  0  0
    0.0000   -1.6000    0.0000 C   0  0  0  0  0  0  0  0  0  0  0  0
    0.0000   -0.0000    0.0000 C   0  0  0  0  0  0  0  0  0  0  0  0
    1.3857    0.8000    0.0000 N   0  0  0  0  0  0  0  0  0  0  0  0
    1.3857    2.4000    0.0000 O   0  0  0  0  0  0  0  0  0  0  0  0
    2.7713   -0.0000    0.0000 O   0  0  0  0  0  0  0  0  0  0  0  0
   -1.3857    0.8000    0.0000 C   0  0  0  0  0  0  0  0  0  0  0  0
   -1.3856    2.4000    0.0000 H   0  0  0  0  0  0  0  0  0  0  0  0
   -2.7713   -0.0000    0.0000 C   0  0  0  0  0  0  0  0  0  0  0  0
   -4.1570    0.8000    0.0000 N   0  0  0  0  0  0  0  0  0  0  0  0
   -5.5426   -0.0000    0.0000 O   0  0  0  0  0  0  0  0  0  0  0  0
   -4.1570    2.4000    0.0000 O   0  0  0  0  0  0  0  0  0  0  0  0
   -2.7713   -1.6000    0.0000 C   0  0  0  0  0  0  0  0  0  0  0  0
   -4.1570   -2.4000    0.0000 H   0  0  0  0  0  0  0  0  0  0  0  0
   -1.3857   -2.4000    0.0000 C   0  0  0  0  0  0  0  0  0  0  0  0
   -1.3856   -4.0000    0.0000 H   0  0  0  0  0  0  0  0  0  0  0  0
  1  2  1  0  0  0  0
  1  3  1  0  0  0  0
  3  4  1  0  0  0  0
  4  5  1  0  0  0  0
  5  6  2  0  0  0  0
  5  7  1  0  0  0  0
  4  8  2  0  0  0  0
  8  9  1  0  0  0  0
  8 10  1  0  0  0  0
 10 11  1  0  0  0  0
 11 12  2  0  0  0  0
 11 13  1  0  0  0  0
 10 14  2  0  0  0  0
 14 15  1  0  0  0  0
 14 16  1  0  0  0  0
 16  3  2  0  0  0  0
 16 17  1  0  0  0  0
M  CHG  4   5   1   7  -1  11   1  13  -1
M  END
> <ChemID>
100012

> <source_casrn>
51-28-5

> <CAS>
51-28-5

> <SMILES>
[O-][N+](=O)c1cc(ccc1O)[N+]([O-])=O

> <NAME>
Phenol, 2,4-dinitro-

> <preferred_name>
2,4-Dinitrophenol

> <iupac>
2,4-dinitrophenol

> <MPID>
100028

> <dsstox_substance_id>
DTXSID0020523

> <Canonical_QSARr>
[O-][N+](=O)c1cc(ccc1O)[N+]([O-])=O

> <InChI_Code_QSARr>
InChI=1S/C6H4N2O5/c9-6-2-1-4(7(10)11)3-5(6)8(12)13/h1-3,9H

> <InChI Key_QSARr>
UFBJCMHMOXMLKC-UHFFFAOYSA-N

> <Salt_Solvent>
?

> <Ready_Biodeg>
0.0

$$$$
100016
  -INDIGO-08031722522D

 36 40  0  0  0  0  0  0  0  0999 V2000
   -0.8001    1.3856    0.0000 C   0  0  0  0  0  0  0  0  0  0  0  0
    0.0000    2.7713    0.0000 H   0  0  0  0  0  0  0  0  0  0  0  0
   -2.3999    1.3856    0.0000 C   0  0  0  0  0  0  0  0  0  0  0  0
   -3.2000    0.0001    0.0000 C   0  0  0  0  0  0  0  0  0  0  0  0
   -4.8001    0.0001    0.0000 C   0  0  0  0  0  0  0  0  0  0  0  0
   -5.5999    1.3856    0.0000 C   0  0  0  0  0  0  0  0  0  0  0  0
   -4.8001    2.7712    0.0000 C   0  0  0  0  0  0  0  0  0  0  0  0
   -5.5999    4.1569    0.0000 H   0  0  0  0  0  0  0  0  0  0  0  0
   -3.2000    2.7713    0.0000 C   0  0  0  0  0  0  0  0  0  0  0  0
   -2.3999    4.1569    0.0000 H   0  0  0  0  0  0  0  0  0  0  0  0
   -7.2001    1.3856    0.0000 C   0  0  0  0  0  0  0  0  0  0  0  0
   -7.9999    2.7713    0.0000 H   0  0  0  0  0  0  0  0  0  0  0  0
   -7.9999    0.0001    0.0000 C   0  0  0  0  0  0  0  0  0  0  0  0
   -9.6000    0.0001    0.0000 H   0  0  0  0  0  0  0  0  0  0  0  0
   -7.2001   -1.3856    0.0000 C   0  0  0  0  0  0  0  0  0  0  0  0
   -8.0001   -2.7712    0.0000 H   0  0  0  0  0  0  0  0  0  0  0  0
   -5.5999   -1.3856    0.0000 C   0  0  0  0  0  0  0  0  0  0  0  0
   -4.8001   -2.7712    0.0000 H   0  0  0  0  0  0  0  0  0  0  0  0
   -2.3999   -1.3856    0.0000 C   0  0  0  0  0  0  0  0  0  0  0  0
   -3.2000   -2.7713    0.0000 H   0  0  0  0  0  0  0  0  0  0  0  0
   -0.8001   -1.3856    0.0000 C   0  0  0  0  0  0  0  0  0  0  0  0
    0.0000    0.0001    0.0000 C   0  0  0  0  0  0  0  0  0  0  0  0
    1.6001   -0.0001    0.0000 C   0  0  0  0  0  0  0  0  0  0  0  0
    2.3999   -1.3856    0.0000 C   0  0  0  0  0  0  0  0  0  0  0  0
    1.6001   -2.7712    0.0000 C   0  0  0  0  0  0  0  0  0  0  0  0
    2.3999   -4.1569    0.0000 H   0  0  0  0  0  0  0  0  0  0  0  0
    0.0000   -2.7712    0.0000 C   0  0  0  0  0  0  0  0  0  0  0  0
   -0.8001   -4.1569    0.0000 H   0  0  0  0  0  0  0  0  0  0  0  0
    4.0001   -1.3856    0.0000 C   0  0  0  0  0  0  0  0  0  0  0  0
    4.8001   -2.7713    0.0000 H   0  0  0  0  0  0  0  0  0  0  0  0
    4.8001   -0.0001    0.0000 C   0  0  0  0  0  0  0  0  0  0  0  0
    6.4000   -0.0001    0.0000 H   0  0  0  0  0  0  0  0  0  0  0  0
    4.0001    1.3856    0.0000 C   0  0  0  0  0  0  0  0  0  0  0  0
    4.8001    2.7712    0.0000 H   0  0  0  0  0  0  0  0  0  0  0  0
    2.3999    1.3856    0.0000 C   0  0  0  0  0  0  0  0  0  0  0  0
    1.6001    2.7712    0.0000 H   0  0  0  0  0  0  0  0  0  0  0  0
  1  2  1  0  0  0  0
  1  3  1  0  0  0  0
  3  4  1  0  0  0  0
  4  5  2  0  0  0  0
  5  6  1  0  0  0  0
  6  7  2  0  0  0  0
  7  8  1  0  0  0  0
  7  9  1  0  0  0  0
  9  3  2  0  0  0  0
  9 10  1  0  0  0  0
  6 11  1  0  0  0  0
 11 12  1  0  0  0  0
 11 13  2  0  0  0  0
 13 14  1  0  0  0  0
 13 15  1  0  0  0  0
 15 16  1  0  0  0  0
 15 17  2  0  0  0  0
 17  5  1  0  0  0  0
 17 18  1  0  0  0  0
  4 19  1  0  0  0  0
 19 20  1  0  0  0  0
 19 21  2  0  0  0  0
 21 22  1  0  0  0  0
 22  1  2  0  0  0  0
 22 23  1  0  0  0  0
 23 24  1  0  0  0  0
 24 25  1  0  0  0  0
 25 26  1  0  0  0  0
 25 27  2  0  0  0  0
 27 21  1  0  0  0  0
 27 28  1  0  0  0  0
 24 29  2  0  0  0  0
 29 30  1  0  0  0  0
 29 31  1  0  0  0  0
 31 32  1  0  0  0  0
 31 33  2  0  0  0  0
 33 34  1  0  0  0  0
 33 35  1  0  0  0  0
 35 23  2  0  0  0  0
 35 36  1  0  0  0  0
M  END
> <ChemID>
100016

> <source_casrn>
53-70-3

> <CAS>
53-70-3

> <SMILES>
c1c2c3ccccc3ccc2cc2c3ccccc3ccc21

> <NAME>
DIBENZ(A,H)ANTHRACENE

> <preferred_name>
Dibenz(a,h)anthracene

> <iupac>
benzo[k]tetraphene

> <MPID>
100032

> <dsstox_substance_id>
DTXSID9020409

> <Canonical_QSARr>
c1c2c3ccccc3ccc2cc2c3ccccc3ccc21

> <InChI_Code_QSARr>
InChI=1S/C22H14/c1-3-7-19-15(5-1)9-11-17-14-22-18(13-21(17)19)12-10-16-6-2-4-8-20(16)22/h1-14H

> <InChI Key_QSARr>
LHRCREOYAASXPZ-UHFFFAOYSA-N

> <Salt_Solvent>
?

> <Ready_Biodeg>
0.0

$$$$
100021
  -INDIGO-08031722522D

 30 33  0  0  0  0  0  0  0  0999 V2000
    0.0000   -0.0001    0.0000 C   0  0  0  0  0  0  0  0  0  0  0  0
   -0.8000    1.3856    0.0000 C   0  0  0  0  0  0  0  0  0  0  0  0
    0.0000    2.7713    0.0000 H   0  0  0  0  0  0  0  0  0  0  0  0
   -2.4000    1.3856    0.0000 C   0  0  0  0  0  0  0  0  0  0  0  0
   -3.2000   -0.0001    0.0000 C   0  0  0  0  0  0  0  0  0  0  0  0
   -4.8000    0.0001    0.0000 C   0  0  0  0  0  0  0  0  0  0  0  0
   -5.6000   -1.3856    0.0000 H   0  0  0  0  0  0  0  0  0  0  0  0
   -5.6000    1.3856    0.0000 C   0  0  0  0  0  0  0  0  0  0  0  0
   -7.2000    1.3856    0.0000 H   0  0  0  0  0  0  0  0  0  0  0  0
   -4.8000    2.7712    0.0000 C   0  0  0  0  0  0  0  0  0  0  0  0
   -5.6000    4.1569    0.0000 H   0  0  0  0  0  0  0  0  0  0  0  0
   -3.2000    2.7712    0.0000 C   0  0  0  0  0  0  0  0  0  0  0  0
   -2.4000    4.1569    0.0000 H   0  0  0  0  0  0  0  0  0  0  0  0
   -2.4000   -1.3856    0.0000 C   0  0  0  0  0  0  0  0  0  0  0  0
   -3.2000   -2.7712    0.0000 H   0  0  0  0  0  0  0  0  0  0  0  0
   -0.8000   -1.3856    0.0000 C   0  0  0  0  0  0  0  0  0  0  0  0
    0.0000   -2.7712    0.0000 C   0  0  0  0  0  0  0  0  0  0  0  0
   -0.8000   -4.1569    0.0000 H   0  0  0  0  0  0  0  0  0  0  0  0
    1.6000   -2.7712    0.0000 C   0  0  0  0  0  0  0  0  0  0  0  0
    2.4000   -4.1569    0.0000 H   0  0  0  0  0  0  0  0  0  0  0  0
    2.4000   -1.3856    0.0000 C   0  0  0  0  0  0  0  0  0  0  0  0
    1.6000   -0.0001    0.0000 C   0  0  0  0  0  0  0  0  0  0  0  0
    2.4000    1.3856    0.0000 C   0  0  0  0  0  0  0  0  0  0  0  0
    1.6000    2.7712    0.0000 H   0  0  0  0  0  0  0  0  0  0  0  0
    4.0000    1.3856    0.0000 C   0  0  0  0  0  0  0  0  0  0  0  0
    4.8000    2.7712    0.0000 H   0  0  0  0  0  0  0  0  0  0  0  0
    4.8000   -0.0001    0.0000 C   0  0  0  0  0  0  0  0  0  0  0  0
    6.4000   -0.0001    0.0000 H   0  0  0  0  0  0  0  0  0  0  0  0
    4.0000   -1.3856    0.0000 C   0  0  0  0  0  0  0  0  0  0  0  0
    4.8000   -2.7713    0.0000 H   0  0  0  0  0  0  0  0  0  0  0  0
  1  2  1  0  0  0  0
  2  3  1  0  0  0  0
  2  4  2  0  0  0  0
  4  5  1  0  0  0  0
  5  6  1  0  0  0  0
  6  7  1  0  0  0  0
  6  8  2  0  0  0  0
  8  9  1  0  0  0  0
  8 10  1  0  0  0  0
 10 11  1  0  0  0  0
 10 12  2  0  0  0  0
 12  4  1  0  0  0  0
 12 13  1  0  0  0  0
  5 14  2  0  0  0  0
 14 15  1  0  0  0  0
 14 16  1  0  0  0  0
 16  1  1  0  0  0  0
 16 17  2  0  0  0  0
 17 18  1  0  0  0  0
 17 19  1  0  0  0  0
 19 20  1  0  0  0  0
 19 21  2  0  0  0  0
 21 22  1  0  0  0  0
 22  1  2  0  0  0  0
 22 23  1  0  0  0  0
 23 24  1  0  0  0  0
 23 25  2  0  0  0  0
 25 26  1  0  0  0  0
 25 27  1  0  0  0  0
 27 28  1  0  0  0  0
 27 29  2  0  0  0  0
 29 21  1  0  0  0  0
 29 30  1  0  0  0  0
M  END
> <ChemID>
100021

> <source_casrn>
56-55-3

> <CAS>
56-55-3

> <SMILES>
c(c(c(c(c1)ccc2)c2)cc(c3ccc4)c4)(c1)c3

> <NAME>
Benzanthracene

> <preferred_name>
Benz(a)anthracene

> <iupac>
tetraphene

> <MPID>
100036

> <dsstox_substance_id>
DTXSID5023902

> <Canonical_QSARr>
c1c2c3ccccc3ccc2cc2ccccc21

> <InChI_Code_QSARr>
InChI=1S/C18H12/c1-2-7-15-12-18-16(11-14(15)6-1)10-9-13-5-3-4-8-17(13)18/h1-12H

> <InChI Key_QSARr>
DXBHBZVCASKNBY-UHFFFAOYSA-N

> <Salt_Solvent>
?

> <Ready_Biodeg>
0.0

$$$$
100026
  -INDIGO-08031722522D

 62 61  0  0  0  0  0  0  0  0999 V2000
    1.5034   -0.5472    0.0000 C   0  0  0  0  0  0  0  0  0  0  0  0
    2.3631   -1.8966    0.0000 H   0  0  0  0  0  0  0  0  0  0  0  0
    1.1572   -2.1093    0.0000 H   0  0  0  0  0  0  0  0  0  0  0  0
    2.7292    0.4812    0.0000 C   0  0  0  0  0  0  0  0  0  0  0  0
    2.4241    1.3192    0.0000 H   0  0  0  0  0  0  0  0  0  0  0  0
    3.0754    2.0434    0.0000 H   0  0  0  0  0  0  0  0  0  0  0  0
    4.2327   -0.0660    0.0000 C   0  0  0  0  0  0  0  0  0  0  0  0
    5.0925   -1.4155    0.0000 H   0  0  0  0  0  0  0  0  0  0  0  0
    3.8865   -1.6281    0.0000 H   0  0  0  0  0  0  0  0  0  0  0  0
    5.4582    0.9625    0.0000 C   0  0  0  0  0  0  0  0  0  0  0  0
    4.5989    2.3119    0.0000 H   0  0  0  0  0  0  0  0  0  0  0  0
    5.8048    2.5245    0.0000 H   0  0  0  0  0  0  0  0  0  0  0  0
    6.9617    0.4153    0.0000 C   0  0  0  0  0  0  0  0  0  0  0  0
    7.8214   -0.9342    0.0000 H   0  0  0  0  0  0  0  0  0  0  0  0
    6.6155   -1.1468    0.0000 H   0  0  0  0  0  0  0  0  0  0  0  0
    8.1875    1.4436    0.0000 C   0  0  0  0  0  0  0  0  0  0  0  0
    7.3278    2.7931    0.0000 H   0  0  0  0  0  0  0  0  0  0  0  0
    8.5337    3.0058    0.0000 H   0  0  0  0  0  0  0  0  0  0  0  0
    9.6910    0.8964    0.0000 C   0  0  0  0  0  0  0  0  0  0  0  0
   10.5507   -0.4530    0.0000 H   0  0  0  0  0  0  0  0  0  0  0  0
    9.3448   -0.6656    0.0000 H   0  0  0  0  0  0  0  0  0  0  0  0
   10.9169    1.9249    0.0000 C   0  0  0  0  0  0  0  0  0  0  0  0
   10.0571    3.2743    0.0000 H   0  0  0  0  0  0  0  0  0  0  0  0
   11.2631    3.4870    0.0000 H   0  0  0  0  0  0  0  0  0  0  0  0
   12.4204    1.3777    0.0000 C   0  0  0  0  0  0  0  0  0  0  0  0
   13.2801    0.0283    0.0000 H   0  0  0  0  0  0  0  0  0  0  0  0
   12.0738   -0.1844    0.0000 H   0  0  0  0  0  0  0  0  0  0  0  0
   13.6458    2.4062    0.0000 C   0  0  0  0  0  0  0  0  0  0  0  0
   12.7861    3.7555    0.0000 H   0  0  0  0  0  0  0  0  0  0  0  0
   13.9924    3.9683    0.0000 H   0  0  0  0  0  0  0  0  0  0  0  0
   15.1493    1.8589    0.0000 C   0  0  0  0  0  0  0  0  0  0  0  0
   16.0090    0.5094    0.0000 H   0  0  0  0  0  0  0  0  0  0  0  0
   14.8031    0.2968    0.0000 H   0  0  0  0  0  0  0  0  0  0  0  0
   16.3751    2.8874    0.0000 C   0  0  0  0  0  0  0  0  0  0  0  0
   15.5154    4.2368    0.0000 H   0  0  0  0  0  0  0  0  0  0  0  0
   16.7213    4.4494    0.0000 H   0  0  0  0  0  0  0  0  0  0  0  0
   17.8787    2.3402    0.0000 C   0  0  0  0  0  0  0  0  0  0  0  0
   18.7384    0.9907    0.0000 H   0  0  0  0  0  0  0  0  0  0  0  0
   17.5325    0.7781    0.0000 H   0  0  0  0  0  0  0  0  0  0  0  0
   19.1041    3.3687    0.0000 C   0  0  0  0  0  0  0  0  0  0  0  0
   18.2448    4.7180    0.0000 H   0  0  0  0  0  0  0  0  0  0  0  0
   19.4507    4.9307    0.0000 H   0  0  0  0  0  0  0  0  0  0  0  0
   20.6076    2.8213    0.0000 C   0  0  0  0  0  0  0  0  0  0  0  0
   21.4673    1.4719    0.0000 H   0  0  0  0  0  0  0  0  0  0  0  0
   20.2614    1.2593    0.0000 H   0  0  0  0  0  0  0  0  0  0  0  0
   21.8334    3.8498    0.0000 C   0  0  0  0  0  0  0  0  0  0  0  0
   23.0593    4.8783    0.0000 H   0  0  0  0  0  0  0  0  0  0  0  0
   23.3369    3.3026    0.0000 H   0  0  0  0  0  0  0  0  0  0  0  0
   21.5558    5.4255    0.0000 H   0  0  0  0  0  0  0  0  0  0  0  0
   -0.0001    0.0000    0.0000 N   0  0  0  0  0  0  0  0  0  0  0  0
   -1.3857    0.8000    0.0000 C   0  0  0  0  0  0  0  0  0  0  0  0
   -2.7713    1.6000    0.0000 H   0  0  0  0  0  0  0  0  0  0  0  0
   -2.7713    0.0000    0.0000 H   0  0  0  0  0  0  0  0  0  0  0  0
   -1.3857    2.3999    0.0000 H   0  0  0  0  0  0  0  0  0  0  0  0
    0.7999    1.3856    0.0000 C   0  0  0  0  0  0  0  0  0  0  0  0
    1.5998    2.7713    0.0000 H   0  0  0  0  0  0  0  0  0  0  0  0
    1.6484    1.6609    0.0000 H   0  0  0  0  0  0  0  0  0  0  0  0
   -0.0001    2.7713    0.0000 H   0  0  0  0  0  0  0  0  0  0  0  0
   -0.8001   -1.3857    0.0000 C   0  0  0  0  0  0  0  0  0  0  0  0
   -1.6000   -2.7713    0.0000 H   0  0  0  0  0  0  0  0  0  0  0  0
   -0.0001   -2.7713    0.0000 H   0  0  0  0  0  0  0  0  0  0  0  0
   -2.4000   -1.3857    0.0000 H   0  0  0  0  0  0  0  0  0  0  0  0
  1  2  1  0  0  0  0
  1  3  1  0  0  0  0
  1  4  1  0  0  0  0
  4  5  1  0  0  0  0
  4  6  1  0  0  0  0
  4  7  1  0  0  0  0
  7  8  1  0  0  0  0
  7  9  1  0  0  0  0
  7 10  1  0  0  0  0
 10 11  1  0  0  0  0
 10 12  1  0  0  0  0
 10 13  1  0  0  0  0
 13 14  1  0  0  0  0
 13 15  1  0  0  0  0
 13 16  1  0  0  0  0
 16 17  1  0  0  0  0
 16 18  1  0  0  0  0
 16 19  1  0  0  0  0
 19 20  1  0  0  0  0
 19 21  1  0  0  0  0
 19 22  1  0  0  0  0
 22 23  1  0  0  0  0
 22 24  1  0  0  0  0
 22 25  1  0  0  0  0
 25 26  1  0  0  0  0
 25 27  1  0  0  0  0
 25 28  1  0  0  0  0
 28 29  1  0  0  0  0
 28 30  1  0  0  0  0
 28 31  1  0  0  0  0
 31 32  1  0  0  0  0
 31 33  1  0  0  0  0
 31 34  1  0  0  0  0
 34 35  1  0  0  0  0
 34 36  1  0  0  0  0
 34 37  1  0  0  0  0
 37 38  1  0  0  0  0
 37 39  1  0  0  0  0
 37 40  1  0  0  0  0
 40 41  1  0  0  0  0
 40 42  1  0  0  0  0
 40 43  1  0  0  0  0
 43 44  1  0  0  0  0
 43 45  1  0  0  0  0
 43 46  1  0  0  0  0
 46 47  1  0  0  0  0
 46 48  1  0  0  0  0
 46 49  1  0  0  0  0
  1 50  1  0  0  0  0
 50 51  1  0  0  0  0
 51 52  1  0  0  0  0
 51 53  1  0  0  0  0
 51 54  1  0  0  0  0
 50 55  1  0  0  0  0
 55 56  1  0  0  0  0
 55 57  1  0  0  0  0
 55 58  1  0  0  0  0
 50 59  1  0  0  0  0
 59 60  1  0  0  0  0
 59 61  1  0  0  0  0
 59 62  1  0  0  0  0
M  CHG  1  50   1
M  END
> <ChemID>
100026

> <source_casrn>
57-09-0

> <CAS>
57-09-0

> <SMILES>
[Br-].CCCCCCCCCCCCCCCC[N+](C)(C)C

> <NAME>
Cetyltrimethylammonium bromide

> <preferred_name>
Hexadecyltrimethylammonium bromide

> <iupac>
N,N,N-trimethylhexadecan-1-aminium bromide

> <MPID>
100040

> <dsstox_substance_id>
DTXSID5037028

> <Canonical_QSARr>
CCCCCCCCCCCCCCCC[N+](C)(C)C

> <InChI_Code_QSARr>
InChI=1S/C19H42N/c1-5-6-7-8-9-10-11-12-13-14-15-16-17-18-19-20(2,3)4/h5-19H2,1-4H3/q+1

> <InChI Key_QSARr>
RLGQACBPNDBWTB-UHFFFAOYSA-N

> <Salt_Solvent>
[Br-]

> <Ready_Biodeg>
0.0

$$$$
100027
  -INDIGO-08031722522D

 50 49  0  0  0  0  0  0  0  0999 V2000
   12.4707    0.8000    0.0000 O   0  0  0  0  0  0  0  0  0  0  0  0
   13.8564    0.0000    0.0000 H   0  0  0  0  0  0  0  0  0  0  0  0
   11.0850    0.0000    0.0000 C   0  0  0  0  0  0  0  0  0  0  0  0
   11.0850   -1.6000    0.0000 O   0  0  0  0  0  0  0  0  0  0  0  0
    9.6997    0.8000    0.0000 C   0  0  0  0  0  0  0  0  0  0  0  0
    9.0873    2.2782    0.0000 H   0  0  0  0  0  0  0  0  0  0  0  0
   10.3117    2.2782    0.0000 H   0  0  0  0  0  0  0  0  0  0  0  0
    8.3140    0.0000    0.0000 C   0  0  0  0  0  0  0  0  0  0  0  0
    8.9259   -1.4782    0.0000 H   0  0  0  0  0  0  0  0  0  0  0  0
    7.7016   -1.4782    0.0000 H   0  0  0  0  0  0  0  0  0  0  0  0
    6.9283    0.8000    0.0000 C   0  0  0  0  0  0  0  0  0  0  0  0
    6.3159    2.2782    0.0000 H   0  0  0  0  0  0  0  0  0  0  0  0
    7.5406    2.2782    0.0000 H   0  0  0  0  0  0  0  0  0  0  0  0
    5.5426    0.0000    0.0000 C   0  0  0  0  0  0  0  0  0  0  0  0
    6.1549   -1.4782    0.0000 H   0  0  0  0  0  0  0  0  0  0  0  0
    4.9302   -1.4782    0.0000 H   0  0  0  0  0  0  0  0  0  0  0  0
    4.1569    0.8000    0.0000 C   0  0  0  0  0  0  0  0  0  0  0  0
    3.5445    2.2782    0.0000 H   0  0  0  0  0  0  0  0  0  0  0  0
    4.7692    2.2782    0.0000 H   0  0  0  0  0  0  0  0  0  0  0  0
    2.7712    0.0000    0.0000 C   0  0  0  0  0  0  0  0  0  0  0  0
    3.3835   -1.4782    0.0000 H   0  0  0  0  0  0  0  0  0  0  0  0
    2.1592   -1.4782    0.0000 H   0  0  0  0  0  0  0  0  0  0  0  0
    1.3855    0.8000    0.0000 C   0  0  0  0  0  0  0  0  0  0  0  0
    0.7735    2.2782    0.0000 H   0  0  0  0  0  0  0  0  0  0  0  0
    1.9978    2.2782    0.0000 H   0  0  0  0  0  0  0  0  0  0  0  0
    0.0001    0.0000    0.0000 C   0  0  0  0  0  0  0  0  0  0  0  0
    0.6121   -1.4782    0.0000 H   0  0  0  0  0  0  0  0  0  0  0  0
   -0.6122   -1.4782    0.0000 H   0  0  0  0  0  0  0  0  0  0  0  0
   -1.3856    0.8000    0.0000 C   0  0  0  0  0  0  0  0  0  0  0  0
   -1.9979    2.2782    0.0000 H   0  0  0  0  0  0  0  0  0  0  0  0
   -0.7732    2.2782    0.0000 H   0  0  0  0  0  0  0  0  0  0  0  0
   -2.7713    0.0000    0.0000 C   0  0  0  0  0  0  0  0  0  0  0  0
   -2.1589   -1.4782    0.0000 H   0  0  0  0  0  0  0  0  0  0  0  0
   -3.3836   -1.4782    0.0000 H   0  0  0  0  0  0  0  0  0  0  0  0
   -4.1570    0.8000    0.0000 C   0  0  0  0  0  0  0  0  0  0  0  0
   -4.7693    2.2782    0.0000 H   0  0  0  0  0  0  0  0  0  0  0  0
   -3.5446    2.2782    0.0000 H   0  0  0  0  0  0  0  0  0  0  0  0
   -5.5427    0.0000    0.0000 C   0  0  0  0  0  0  0  0  0  0  0  0
   -4.9303   -1.4782    0.0000 H   0  0  0  0  0  0  0  0  0  0  0  0
   -6.1547   -1.4782    0.0000 H   0  0  0  0  0  0  0  0  0  0  0  0
   -6.9284    0.8000    0.0000 C   0  0  0  0  0  0  0  0  0  0  0  0
   -7.5404    2.2782    0.0000 H   0  0  0  0  0  0  0  0  0  0  0  0
   -6.3160    2.2782    0.0000 H   0  0  0  0  0  0  0  0  0  0  0  0
   -8.3137    0.0000    0.0000 C   0  0  0  0  0  0  0  0  0  0  0  0
   -7.7017   -1.4782    0.0000 H   0  0  0  0  0  0  0  0  0  0  0  0
   -8.9261   -1.4782    0.0000 H   0  0  0  0  0  0  0  0  0  0  0  0
   -9.6994    0.8000    0.0000 C   0  0  0  0  0  0  0  0  0  0  0  0
  -11.0851    1.6000    0.0000 H   0  0  0  0  0  0  0  0  0  0  0  0
  -11.0851    0.0000    0.0000 H   0  0  0  0  0  0  0  0  0  0  0  0
   -9.6994    2.4000    0.0000 H   0  0  0  0  0  0  0  0  0  0  0  0
  1  2  1  0  0  0  0
  1  3  1  0  0  0  0
  3  4  2  0  0  0  0
  3  5  1  0  0  0  0
  5  6  1  0  0  0  0
  5  7  1  0  0  0  0
  5  8  1  0  0  0  0
  8  9  1  0  0  0  0
  8 10  1  0  0  0  0
  8 11  1  0  0  0  0
 11 12  1  0  0  0  0
 11 13  1  0  0  0  0
 11 14  1  0  0  0  0
 14 15  1  0  0  0  0
 14 16  1  0  0  0  0
 14 17  1  0  0  0  0
 17 18  1  0  0  0  0
 17 19  1  0  0  0  0
 17 20  1  0  0  0  0
 20 21  1  0  0  0  0
 20 22  1  0  0  0  0
 20 23  1  0  0  0  0
 23 24  1  0  0  0  0
 23 25  1  0  0  0  0
 23 26  1  0  0  0  0
 26 27  1  0  0  0  0
 26 28  1  0  0  0  0
 26 29  1  0  0  0  0
 29 30  1  0  0  0  0
 29 31  1  0  0  0  0
 29 32  1  0  0  0  0
 32 33  1  0  0  0  0
 32 34  1  0  0  0  0
 32 35  1  0  0  0  0
 35 36  1  0  0  0  0
 35 37  1  0  0  0  0
 35 38  1  0  0  0  0
 38 39  1  0  0  0  0
 38 40  1  0  0  0  0
 38 41  1  0  0  0  0
 41 42  1  0  0  0  0
 41 43  1  0  0  0  0
 41 44  1  0  0  0  0
 44 45  1  0  0  0  0
 44 46  1  0  0  0  0
 44 47  1  0  0  0  0
 47 48  1  0  0  0  0
 47 49  1  0  0  0  0
 47 50  1  0  0  0  0
M  END
> <ChemID>
100027

> <source_casrn>
57-10-3

> <CAS>
57-10-3

> <SMILES>
CCCCCCCCCCCCCCCC(O)=O

> <NAME>
Palmitic acid

> <preferred_name>
Hexadecanoic acid

> <iupac>
hexadecanoic acid

> <MPID>
100041

> <dsstox_substance_id>
DTXSID2021602

> <Canonical_QSARr>
CCCCCCCCCCCCCCCC(O)=O

> <InChI_Code_QSARr>
InChI=1S/C16H32O2/c1-2-3-4-5-6-7-8-9-10-11-12-13-14-15-16(17)18/h2-15H2,1H3,(H,17,18)

> <InChI Key_QSARr>
IPCSVZSSVZVIGE-UHFFFAOYSA-N

> <Salt_Solvent>
?

> <Ready_Biodeg>
1.0

$$$$
100031
  -INDIGO-08031722522D

 15 14  0  0  0  0  0  0  0  0999 V2000
   -0.8000   -1.3856    0.0000 C   0  0  0  0  0  0  0  0  0  0  0  0
    0.0000    0.0000    0.0000 C   0  0  0  0  0  0  0  0  0  0  0  0
    1.3856   -0.8000    0.0000 O   0  0  0  0  0  0  0  0  0  0  0  0
    1.3856   -2.4000    0.0000 H   0  0  0  0  0  0  0  0  0  0  0  0
    0.8000    1.3856    0.0000 C   0  0  0  0  0  0  0  0  0  0  0  0
    1.6000    2.7713    0.0000 H   0  0  0  0  0  0  0  0  0  0  0  0
    2.4000    1.3856    0.0000 H   0  0  0  0  0  0  0  0  0  0  0  0
    0.0000    2.7713    0.0000 H   0  0  0  0  0  0  0  0  0  0  0  0
   -1.3856    0.8000    0.0000 C   0  0  0  0  0  0  0  0  0  0  0  0
   -2.7713    1.6000    0.0000 H   0  0  0  0  0  0  0  0  0  0  0  0
   -2.7713    0.0000    0.0000 H   0  0  0  0  0  0  0  0  0  0  0  0
   -1.3856    2.4000    0.0000 H   0  0  0  0  0  0  0  0  0  0  0  0
   -1.6000   -2.7713    0.0000 Cl  0  0  0  0  0  0  0  0  0  0  0  0
    0.0000   -2.7713    0.0000 Cl  0  0  0  0  0  0  0  0  0  0  0  0
   -2.4000   -1.3856    0.0000 Cl  0  0  0  0  0  0  0  0  0  0  0  0
  1  2  1  0  0  0  0
  2  3  1  0  0  0  0
  3  4  1  0  0  0  0
  2  5  1  0  0  0  0
  5  6  1  0  0  0  0
  5  7  1  0  0  0  0
  5  8  1  0  0  0  0
  2  9  1  0  0  0  0
  9 10  1  0  0  0  0
  9 11  1  0  0  0  0
  9 12  1  0  0  0  0
  1 13  1  0  0  0  0
  1 14  1  0  0  0  0
  1 15  1  0  0  0  0
M  END
> <ChemID>
100031

> <source_casrn>
57-15-8

> <CAS>
57-15-8

> <SMILES>
CC(C)(O)C(Cl)(Cl)Cl

> <NAME>
2-Propanol, 1,1,1-trichloro-2-methyl-

> <preferred_name>
1,1,1-Trichloro-2-methyl-2-propanol

> <iupac>
1,1,1-trichloro-2-methylpropan-2-ol

> <MPID>
100045

> <dsstox_substance_id>
DTXSID1041217

> <Canonical_QSARr>
CC(C)(O)C(Cl)(Cl)Cl

> <InChI_Code_QSARr>
InChI=1S/C4H7Cl3O/c1-3(2,8)4(5,6)7/h8H,1-2H3

> <InChI Key_QSARr>
OSASVXMJTNOKOY-UHFFFAOYSA-N

> <Salt_Solvent>
?

> <Ready_Biodeg>
0.0

$$$$
100035
  -INDIGO-08031722522D

 13 13  0  0  0  0  0  0  0  0999 V2000
    0.8000    1.3856    0.0000 O   0  0  0  0  0  0  0  0  0  0  0  0
    2.4000    1.3856    0.0000 H   0  0  0  0  0  0  0  0  0  0  0  0
   -0.0000   -0.0000    0.0000 C   0  0  0  0  0  0  0  0  0  0  0  0
    0.8000   -1.3857    0.0000 C   0  0  0  0  0  0  0  0  0  0  0  0
    2.4000   -1.3857    0.0000 Cl  0  0  0  0  0  0  0  0  0  0  0  0
   -0.0000   -2.7713    0.0000 C   0  0  0  0  0  0  0  0  0  0  0  0
    0.8000   -4.1569    0.0000 Cl  0  0  0  0  0  0  0  0  0  0  0  0
   -1.6000   -2.7713    0.0000 C   0  0  0  0  0  0  0  0  0  0  0  0
   -2.4000   -4.1569    0.0000 Cl  0  0  0  0  0  0  0  0  0  0  0  0
   -2.4000   -1.3856    0.0000 C   0  0  0  0  0  0  0  0  0  0  0  0
   -4.0000   -1.3856    0.0000 H   0  0  0  0  0  0  0  0  0  0  0  0
   -1.6000   -0.0000    0.0000 C   0  0  0  0  0  0  0  0  0  0  0  0
   -2.4000    1.3856    0.0000 Cl  0  0  0  0  0  0  0  0  0  0  0  0
  1  2  1  0  0  0  0
  1  3  1  0  0  0  0
  3  4  1  0  0  0  0
  4  5  1  0  0  0  0
  4  6  2  0  0  0  0
  6  7  1  0  0  0  0
  6  8  1  0  0  0  0
  8  9  1  0  0  0  0
  8 10  2  0  0  0  0
 10 11  1  0  0  0  0
 10 12  1  0  0  0  0
 12  3  2  0  0  0  0
 12 13  1  0  0  0  0
M  END
> <ChemID>
100035

> <source_casrn>
58-90-2

> <CAS>
58-90-2

> <SMILES>
Oc1c(Cl)cc(Cl)c(Cl)c1Cl

> <NAME>
Phenol, 2,3,4,6-tetrachloro-

> <preferred_name>
2,3,4,6-Tetrachlorophenol

> <iupac>
2,3,4,6-tetrachlorophenol

> <MPID>
100049

> <dsstox_substance_id>
DTXSID9021716

> <Canonical_QSARr>
Oc1c(Cl)cc(Cl)c(Cl)c1Cl

> <InChI_Code_QSARr>
InChI=1S/C6H2Cl4O/c7-2-1-3(8)6(11)5(10)4(2)9/h1,11H

> <InChI Key_QSARr>
VGVRPFIJEJYOFN-UHFFFAOYSA-N

> <Salt_Solvent>
?

> <Ready_Biodeg>
0.0

$$$$
100039
  -INDIGO-08031722522D

 26 27  0  0  0  0  0  0  0  0999 V2000
    4.8001    0.0000    0.0000 N   0  0  0  0  0  0  0  0  0  0  0  0
    5.5999    1.3856    0.0000 N   0  0  0  0  0  0  0  0  0  0  0  0
    7.2000    1.3856    0.0000 C   0  0  0  0  0  0  0  0  0  0  0  0
    8.0000    0.0000    0.0000 C   0  0  0  0  0  0  0  0  0  0  0  0
    7.2000   -1.3856    0.0000 H   0  0  0  0  0  0  0  0  0  0  0  0
    9.6001    0.0000    0.0000 C   0  0  0  0  0  0  0  0  0  0  0  0
   10.3999   -1.3856    0.0000 H   0  0  0  0  0  0  0  0  0  0  0  0
   10.3999    1.3856    0.0000 C   0  0  0  0  0  0  0  0  0  0  0  0
   12.0000    1.3856    0.0000 H   0  0  0  0  0  0  0  0  0  0  0  0
    9.6001    2.7713    0.0000 C   0  0  0  0  0  0  0  0  0  0  0  0
   10.3999    4.1569    0.0000 H   0  0  0  0  0  0  0  0  0  0  0  0
    8.0000    2.7713    0.0000 C   0  0  0  0  0  0  0  0  0  0  0  0
    7.2000    4.1569    0.0000 H   0  0  0  0  0  0  0  0  0  0  0  0
    3.2000    0.0000    0.0000 C   0  0  0  0  0  0  0  0  0  0  0  0
    2.4000    1.3856    0.0000 C   0  0  0  0  0  0  0  0  0  0  0  0
    3.2000    2.7713    0.0000 H   0  0  0  0  0  0  0  0  0  0  0  0
    0.7999    1.3856    0.0000 C   0  0  0  0  0  0  0  0  0  0  0  0
    0.0001    2.7713    0.0000 H   0  0  0  0  0  0  0  0  0  0  0  0
    0.0001    0.0000    0.0000 C   0  0  0  0  0  0  0  0  0  0  0  0
   -1.6000    0.0000    0.0000 N   0  0  0  0  0  0  0  0  0  0  0  0
   -2.4000   -1.3856    0.0000 H   0  0  0  0  0  0  0  0  0  0  0  0
   -2.4000    1.3856    0.0000 H   0  0  0  0  0  0  0  0  0  0  0  0
    0.7999   -1.3856    0.0000 C   0  0  0  0  0  0  0  0  0  0  0  0
    0.0001   -2.7713    0.0000 H   0  0  0  0  0  0  0  0  0  0  0  0
    2.4000   -1.3856    0.0000 C   0  0  0  0  0  0  0  0  0  0  0  0
    3.2000   -2.7713    0.0000 H   0  0  0  0  0  0  0  0  0  0  0  0
  1  2  2  0  0  0  0
  2  3  1  0  0  0  0
  3  4  1  0  0  0  0
  4  5  1  0  0  0  0
  4  6  2  0  0  0  0
  6  7  1  0  0  0  0
  6  8  1  0  0  0  0
  8  9  1  0  0  0  0
  8 10  2  0  0  0  0
 10 11  1  0  0  0  0
 10 12  1  0  0  0  0
 12  3  2  0  0  0  0
 12 13  1  0  0  0  0
  1 14  1  0  0  0  0
 14 15  1  0  0  0  0
 15 16  1  0  0  0  0
 15 17  2  0  0  0  0
 17 18  1  0  0  0  0
 17 19  1  0  0  0  0
 19 20  1  0  0  0  0
 20 21  1  0  0  0  0
 20 22  1  0  0  0  0
 19 23  2  0  0  0  0
 23 24  1  0  0  0  0
 23 25  1  0  0  0  0
 25 14  2  0  0  0  0
 25 26  1  0  0  0  0
M  END
> <ChemID>
100039

> <source_casrn>
60-09-3

> <CAS>
60-09-3

> <SMILES>
Nc1ccc(cc1)/N=N/c1ccccc1

> <NAME>
P-PHENYLAZOANILINE

> <preferred_name>
4-Aminoazobenzene

> <iupac>
4-[(E)-phenyldiazenyl]aniline

> <MPID>
100053

> <dsstox_substance_id>
DTXSID6024460

> <Canonical_QSARr>
Nc1ccc(cc1)N=Nc1ccccc1

> <InChI_Code_QSARr>
InChI=1S/C12H11N3/c13-10-6-8-12(9-7-10)15-14-11-4-2-1-3-5-11/h1-9H,13H2/b15-14+

> <InChI Key_QSARr>
QPQKUYVSJWQSDY-CCEZHUSRSA-N

> <Salt_Solvent>
?

> <Ready_Biodeg>
0.0

$$$$
100043
  -INDIGO-08031722522D

  9  8  0  0  0  0  0  0  0  0999 V2000
   -0.0000    0.0000    0.0000 C   0  0  0  0  0  0  0  0  0  0  0  0
    1.3856    0.8000    0.0000 H   0  0  0  0  0  0  0  0  0  0  0  0
   -0.0000    1.6000    0.0000 H   0  0  0  0  0  0  0  0  0  0  0  0
    1.3856   -0.8000    0.0000 H   0  0  0  0  0  0  0  0  0  0  0  0
   -1.3856   -0.8000    0.0000 N   0  0  0  0  0  0  0  0  0  0  0  0
   -1.3856   -2.4000    0.0000 H   0  0  0  0  0  0  0  0  0  0  0  0
   -2.7713    0.0000    0.0000 N   0  0  0  0  0  0  0  0  0  0  0  0
   -4.1569   -0.8000    0.0000 H   0  0  0  0  0  0  0  0  0  0  0  0
   -2.7713    1.6000    0.0000 H   0  0  0  0  0  0  0  0  0  0  0  0
  1  2  1  0  0  0  0
  1  3  1  0  0  0  0
  1  4  1  0  0  0  0
  1  5  1  0  0  0  0
  5  6  1  0  0  0  0
  5  7  1  0  0  0  0
  7  8  1  0  0  0  0
  7  9  1  0  0  0  0
M  END
> <ChemID>
100043

> <source_casrn>
60-34-4

> <CAS>
60-34-4

> <SMILES>
CNN

> <NAME>
Hydrazine, methyl-

> <preferred_name>
Methylhydrazine

> <iupac>
methylhydrazine

> <MPID>
100057

> <dsstox_substance_id>
DTXSID4020874

> <Canonical_QSARr>
CNN

> <InChI_Code_QSARr>
InChI=1S/CH6N2/c1-3-2/h3H,2H2,1H3

> <InChI Key_QSARr>
HDZGCSFEDULWCS-UHFFFAOYSA-N

> <Salt_Solvent>
?

> <Ready_Biodeg>
0.0

$$$$
100047
  -INDIGO-08031722522D

 10 10  0  0  0  0  0  0  0  0999 V2000
    0.0000    0.0000    0.0000 C   0  0  0  0  0  0  0  0  0  0  0  0
    1.0706    1.1890    0.0000 N   0  0  0  0  0  0  0  0  0  0  0  0
    2.5322    0.5382    0.0000 C   0  0  0  0  0  0  0  0  0  0  0  0
    3.9179    1.3383    0.0000 H   0  0  0  0  0  0  0  0  0  0  0  0
    2.3650   -1.0530    0.0000 N   0  0  0  0  0  0  0  0  0  0  0  0
    3.5541   -2.1236    0.0000 H   0  0  0  0  0  0  0  0  0  0  0  0
    0.8000   -1.3856    0.0000 N   0  0  0  0  0  0  0  0  0  0  0  0
   -1.5912    0.1673    0.0000 N   0  0  0  0  0  0  0  0  0  0  0  0
   -2.5317   -1.1272    0.0000 H   0  0  0  0  0  0  0  0  0  0  0  0
   -2.2421    1.6289    0.0000 H   0  0  0  0  0  0  0  0  0  0  0  0
  1  2  1  0  0  0  0
  2  3  2  0  0  0  0
  3  4  1  0  0  0  0
  3  5  1  0  0  0  0
  5  6  1  0  0  0  0
  5  7  1  0  0  0  0
  7  1  2  0  0  0  0
  1  8  1  0  0  0  0
  8  9  1  0  0  0  0
  8 10  1  0  0  0  0
M  END
> <ChemID>
100047

> <source_casrn>
61-82-5

> <CAS>
61-82-5

> <SMILES>
Nc1[n]c[nH][n]1

> <NAME>
1H-1,2,4-Triazol-3-amine

> <preferred_name>
Amitrole

> <iupac>
1H-1,2,4-triazol-3-amine

> <MPID>
100061

> <dsstox_substance_id>
DTXSID0020076

> <Canonical_QSARr>
Nc1[n]c[nH][n]1

> <InChI_Code_QSARr>
InChI=1S/C2H4N4/c3-2-4-1-5-6-2/h1H,(H3,3,4,5,6)

> <InChI Key_QSARr>
KLSJWNVTNUYHDU-UHFFFAOYSA-N

> <Salt_Solvent>
?

> <Ready_Biodeg>
0.0

$$$$
100051
  -INDIGO-08031722522D

 18 17  0  0  0  0  0  0  0  0999 V2000
   -0.8000    1.3856    0.0000 O   0  0  0  0  0  0  0  0  0  0  0  0
    0.0000    0.0000    0.0000 P   0  0  0  0  0  0  0  0  0  0  0  0
    1.6000    0.0000    0.0000 O   0  0  0  0  0  0  0  0  0  0  0  0
    2.4000   -1.3856    0.0000 C   0  0  0  0  0  0  0  0  0  0  0  0
    1.6000   -2.7713    0.0000 H   0  0  0  0  0  0  0  0  0  0  0  0
    4.0000   -1.3856    0.0000 C   0  0  0  0  0  0  0  0  0  0  0  0
    4.8000   -2.7713    0.0000 Cl  0  0  0  0  0  0  0  0  0  0  0  0
    4.8000    0.0000    0.0000 Cl  0  0  0  0  0  0  0  0  0  0  0  0
    0.8000    1.3856    0.0000 O   0  0  0  0  0  0  0  0  0  0  0  0
    0.0000    2.7713    0.0000 C   0  0  0  0  0  0  0  0  0  0  0  0
    0.8000    4.1569    0.0000 H   0  0  0  0  0  0  0  0  0  0  0  0
   -0.8000    4.1569    0.0000 H   0  0  0  0  0  0  0  0  0  0  0  0
   -1.6000    2.7713    0.0000 H   0  0  0  0  0  0  0  0  0  0  0  0
   -0.8000   -1.3856    0.0000 O   0  0  0  0  0  0  0  0  0  0  0  0
   -2.4001   -1.3856    0.0000 C   0  0  0  0  0  0  0  0  0  0  0  0
   -4.0000   -1.3856    0.0000 H   0  0  0  0  0  0  0  0  0  0  0  0
   -3.2000   -2.7713    0.0000 H   0  0  0  0  0  0  0  0  0  0  0  0
   -3.2000    0.0000    0.0000 H   0  0  0  0  0  0  0  0  0  0  0  0
  1  2  2  0  0  0  0
  2  3  1  0  0  0  0
  3  4  1  0  0  0  0
  4  5  1  0  0  0  0
  4  6  2  0  0  0  0
  6  7  1  0  0  0  0
  6  8  1  0  0  0  0
  2  9  1  0  0  0  0
  9 10  1  0  0  0  0
 10 11  1  0  0  0  0
 10 12  1  0  0  0  0
 10 13  1  0  0  0  0
  2 14  1  0  0  0  0
 14 15  1  0  0  0  0
 15 16  1  0  0  0  0
 15 17  1  0  0  0  0
 15 18  1  0  0  0  0
M  END
> <ChemID>
100051

> <source_casrn>
62-73-7

> <CAS>
62-73-7

> <SMILES>
COP(=O)(OC=C(Cl)Cl)OC

> <NAME>
DDVP

> <preferred_name>
Dichlorvos

> <iupac>
2,2-dichloroethenyl dimethyl phosphate

> <MPID>
100065

> <dsstox_substance_id>
DTXSID5020449

> <Canonical_QSARr>
COP(=O)(OC=C(Cl)Cl)OC

> <InChI_Code_QSARr>
InChI=1S/C4H7Cl2O4P/c1-8-11(7,9-2)10-3-4(5)6/h3H,1-2H3

> <InChI Key_QSARr>
OEBRKCOSUFCWJD-UHFFFAOYSA-N

> <Salt_Solvent>
?

> <Ready_Biodeg>
1.0

$$$$
100055
  -INDIGO-08031722522D

 20 20  0  0  0  0  0  0  0  0999 V2000
   -1.3857   -0.8000    0.0000 C   0  0  0  0  0  0  0  0  0  0  0  0
   -1.3857   -2.4000    0.0000 C   0  0  0  0  0  0  0  0  0  0  0  0
    0.0001   -3.2000    0.0000 H   0  0  0  0  0  0  0  0  0  0  0  0
   -2.7713   -3.2000    0.0000 C   0  0  0  0  0  0  0  0  0  0  0  0
   -2.7713   -4.8000    0.0000 H   0  0  0  0  0  0  0  0  0  0  0  0
   -4.1569   -2.4000    0.0000 C   0  0  0  0  0  0  0  0  0  0  0  0
   -5.5426   -3.2000    0.0000 H   0  0  0  0  0  0  0  0  0  0  0  0
   -4.1569   -0.8000    0.0000 C   0  0  0  0  0  0  0  0  0  0  0  0
   -5.5426   -0.0000    0.0000 H   0  0  0  0  0  0  0  0  0  0  0  0
   -2.7713   -0.0000    0.0000 C   0  0  0  0  0  0  0  0  0  0  0  0
   -2.7713    1.6000    0.0000 H   0  0  0  0  0  0  0  0  0  0  0  0
    0.0001   -0.0000    0.0000 C   0  0  0  0  0  0  0  0  0  0  0  0
    0.6124    1.4782    0.0000 H   0  0  0  0  0  0  0  0  0  0  0  0
   -0.6122    1.4782    0.0000 H   0  0  0  0  0  0  0  0  0  0  0  0
    1.3857   -0.8000    0.0000 C   0  0  0  0  0  0  0  0  0  0  0  0
    0.7734   -2.2782    0.0000 H   0  0  0  0  0  0  0  0  0  0  0  0
    1.9980   -2.2782    0.0000 H   0  0  0  0  0  0  0  0  0  0  0  0
    2.7713   -0.0000    0.0000 N   0  0  0  0  0  0  0  0  0  0  0  0
    4.1569   -0.8000    0.0000 H   0  0  0  0  0  0  0  0  0  0  0  0
    2.7713    1.6000    0.0000 H   0  0  0  0  0  0  0  0  0  0  0  0
  1  2  1  0  0  0  0
  2  3  1  0  0  0  0
  2  4  2  0  0  0  0
  4  5  1  0  0  0  0
  4  6  1  0  0  0  0
  6  7  1  0  0  0  0
  6  8  2  0  0  0  0
  8  9  1  0  0  0  0
  8 10  1  0  0  0  0
 10  1  2  0  0  0  0
 10 11  1  0  0  0  0
  1 12  1  0  0  0  0
 12 13  1  0  0  0  0
 12 14  1  0  0  0  0
 12 15  1  0  0  0  0
 15 16  1  0  0  0  0
 15 17  1  0  0  0  0
 15 18  1  0  0  0  0
 18 19  1  0  0  0  0
 18 20  1  0  0  0  0
M  END
> <ChemID>
100055

> <source_casrn>
64-04-0

> <CAS>
64-04-0

> <SMILES>
NCCc(cccc1)c1

> <NAME>
Benzeneethanamine

> <preferred_name>
Phenethylamine

> <iupac>
2-phenylethanamine

> <MPID>
100069

> <dsstox_substance_id>
DTXSID5058773

> <Canonical_QSARr>
NCCc1ccccc1

> <InChI_Code_QSARr>
InChI=1S/C8H11N/c9-7-6-8-4-2-1-3-5-8/h1-5H,6-7,9H2

> <InChI Key_QSARr>
BHHGXPLMPWCGHP-UHFFFAOYSA-N

> <Salt_Solvent>
?

> <Ready_Biodeg>
1.0

$$$$
100059
  -INDIGO-08031722522D

 19 18  0  0  0  0  0  0  0  0999 V2000
    1.3856    0.8000    0.0000 C   0  0  0  0  0  0  0  0  0  0  0  0
    2.7713    1.6000    0.0000 H   0  0  0  0  0  0  0  0  0  0  0  0
    2.7713    0.0000    0.0000 H   0  0  0  0  0  0  0  0  0  0  0  0
    1.3856    2.4000    0.0000 H   0  0  0  0  0  0  0  0  0  0  0  0
   -0.0000    0.0000    0.0000 C   0  0  0  0  0  0  0  0  0  0  0  0
    0.6123   -1.4782    0.0000 H   0  0  0  0  0  0  0  0  0  0  0  0
   -0.6124   -1.4782    0.0000 H   0  0  0  0  0  0  0  0  0  0  0  0
   -1.3857    0.8000    0.0000 O   0  0  0  0  0  0  0  0  0  0  0  0
   -2.7712   -0.0000    0.0000 S   0  0  0  0  0  0  0  0  0  0  0  0
   -4.1569   -0.8000    0.0000 O   0  0  0  0  0  0  0  0  0  0  0  0
   -5.5425   -0.0000    0.0000 C   0  0  0  0  0  0  0  0  0  0  0  0
   -6.1548    1.4782    0.0000 H   0  0  0  0  0  0  0  0  0  0  0  0
   -4.9302    1.4782    0.0000 H   0  0  0  0  0  0  0  0  0  0  0  0
   -6.9282   -0.8000    0.0000 C   0  0  0  0  0  0  0  0  0  0  0  0
   -8.3138   -1.6000    0.0000 H   0  0  0  0  0  0  0  0  0  0  0  0
   -8.3138   -0.0000    0.0000 H   0  0  0  0  0  0  0  0  0  0  0  0
   -6.9282   -2.4000    0.0000 H   0  0  0  0  0  0  0  0  0  0  0  0
   -3.5713    1.3857    0.0000 O   0  0  0  0  0  0  0  0  0  0  0  0
   -1.9713   -1.3857    0.0000 O   0  0  0  0  0  0  0  0  0  0  0  0
  1  2  1  0  0  0  0
  1  3  1  0  0  0  0
  1  4  1  0  0  0  0
  1  5  1  0  0  0  0
  5  6  1  0  0  0  0
  5  7  1  0  0  0  0
  5  8  1  0  0  0  0
  8  9  1  0  0  0  0
  9 10  1  0  0  0  0
 10 11  1  0  0  0  0
 11 12  1  0  0  0  0
 11 13  1  0  0  0  0
 11 14  1  0  0  0  0
 14 15  1  0  0  0  0
 14 16  1  0  0  0  0
 14 17  1  0  0  0  0
  9 18  2  0  0  0  0
  9 19  2  0  0  0  0
M  END
> <ChemID>
100059

> <source_casrn>
64-67-5

> <CAS>
64-67-5

> <SMILES>
CCOS(=O)(=O)OCC

> <NAME>
Sulfuric acid, diethyl ester

> <preferred_name>
Diethyl sulfate

> <iupac>
diethyl sulfate

> <MPID>
100073

> <dsstox_substance_id>
DTXSID1024045

> <Canonical_QSARr>
CCOS(=O)(=O)OCC

> <InChI_Code_QSARr>
InChI=1S/C4H10O4S/c1-3-7-9(5,6)8-4-2/h3-4H2,1-2H3

> <InChI Key_QSARr>
DENRZWYUOJLTMF-UHFFFAOYSA-N

> <Salt_Solvent>
?

> <Ready_Biodeg>
1.0

$$$$
100063
  -INDIGO-08031722522D

 43 44  0  0  0  0  0  0  0  0999 V2000
   -2.3999    1.3857    0.0000 C   0  0  0  0  0  0  0  0  0  0  0  0
   -2.1222    2.9614    0.0000 H   0  0  0  0  0  0  0  0  0  0  0  0
   -3.2000    0.0001    0.0000 C   0  0  0  0  0  0  0  0  0  0  0  0
   -4.4257    1.0285    0.0000 H   0  0  0  0  0  0  0  0  0  0  0  0
   -4.4257   -1.0284    0.0000 H   0  0  0  0  0  0  0  0  0  0  0  0
   -2.3999   -1.3856    0.0000 C   0  0  0  0  0  0  0  0  0  0  0  0
   -3.9036   -1.9329    0.0000 H   0  0  0  0  0  0  0  0  0  0  0  0
   -2.1222   -2.9614    0.0000 C   0  0  0  0  0  0  0  0  0  0  0  0
   -1.8443   -4.5370    0.0000 H   0  0  0  0  0  0  0  0  0  0  0  0
   -3.3479   -3.9898    0.0000 H   0  0  0  0  0  0  0  0  0  0  0  0
   -0.6186   -3.5086    0.0000 H   0  0  0  0  0  0  0  0  0  0  0  0
   -0.8000   -1.3856    0.0000 C   0  0  0  0  0  0  0  0  0  0  0  0
    0.0001   -2.7712    0.0000 O   0  0  0  0  0  0  0  0  0  0  0  0
    0.0001    0.0001    0.0000 C   0  0  0  0  0  0  0  0  0  0  0  0
    1.2258    1.0285    0.0000 H   0  0  0  0  0  0  0  0  0  0  0  0
    1.5035   -0.5473    0.0000 C   0  0  0  0  0  0  0  0  0  0  0  0
    0.4750   -1.7728    0.0000 H   0  0  0  0  0  0  0  0  0  0  0  0
    2.7292   -1.5757    0.0000 C   0  0  0  0  0  0  0  0  0  0  0  0
    2.7989   -3.1741    0.0000 H   0  0  0  0  0  0  0  0  0  0  0  0
    1.6483   -2.7553    0.0000 H   0  0  0  0  0  0  0  0  0  0  0  0
    4.3048   -1.2978    0.0000 C   0  0  0  0  0  0  0  0  0  0  0  0
    3.7577    0.2056    0.0000 H   0  0  0  0  0  0  0  0  0  0  0  0
    4.3048   -2.8979    0.0000 C   0  0  0  0  0  0  0  0  0  0  0  0
    2.8014   -2.3507    0.0000 H   0  0  0  0  0  0  0  0  0  0  0  0
    3.7577   -4.4014    0.0000 H   0  0  0  0  0  0  0  0  0  0  0  0
    5.6905   -3.6978    0.0000 C   0  0  0  0  0  0  0  0  0  0  0  0
    5.6905   -5.2979    0.0000 O   0  0  0  0  0  0  0  0  0  0  0  0
    7.0761   -2.8979    0.0000 N   0  0  0  0  0  0  0  0  0  0  0  0
    8.4618   -3.6978    0.0000 H   0  0  0  0  0  0  0  0  0  0  0  0
    7.0761   -1.2978    0.0000 C   0  0  0  0  0  0  0  0  0  0  0  0
    8.4618   -0.4978    0.0000 O   0  0  0  0  0  0  0  0  0  0  0  0
    5.6905   -0.4978    0.0000 C   0  0  0  0  0  0  0  0  0  0  0  0
    6.7189    0.7279    0.0000 H   0  0  0  0  0  0  0  0  0  0  0  0
    4.6620    0.7279    0.0000 H   0  0  0  0  0  0  0  0  0  0  0  0
    2.5320    0.6784    0.0000 O   0  0  0  0  0  0  0  0  0  0  0  0
    1.9847    2.1820    0.0000 H   0  0  0  0  0  0  0  0  0  0  0  0
   -0.8000    1.3857    0.0000 C   0  0  0  0  0  0  0  0  0  0  0  0
    0.7034    1.9329    0.0000 H   0  0  0  0  0  0  0  0  0  0  0  0
   -1.0779    2.9614    0.0000 H   0  0  0  0  0  0  0  0  0  0  0  0
   -3.7856    2.1856    0.0000 C   0  0  0  0  0  0  0  0  0  0  0  0
   -5.1713    2.9856    0.0000 H   0  0  0  0  0  0  0  0  0  0  0  0
   -3.7856    3.7856    0.0000 H   0  0  0  0  0  0  0  0  0  0  0  0
   -5.1713    1.3857    0.0000 H   0  0  0  0  0  0  0  0  0  0  0  0
  1  2  1  0  0  0  0
  1  3  1  0  0  0  0
  3  4  1  0  0  0  0
  3  5  1  0  0  0  0
  3  6  1  0  0  0  0
  6  7  1  0  0  0  0
  6  8  1  0  0  0  0
  8  9  1  0  0  0  0
  8 10  1  0  0  0  0
  8 11  1  0  0  0  0
  6 12  1  0  0  0  0
 12 13  2  0  0  0  0
 12 14  1  0  0  0  0
 14 15  1  0  0  0  0
 14 16  1  0  0  0  0
 16 17  1  0  0  0  0
 16 18  1  0  0  0  0
 18 19  1  0  0  0  0
 18 20  1  0  0  0  0
 18 21  1  0  0  0  0
 21 22  1  0  0  0  0
 21 23  1  0  0  0  0
 23 24  1  0  0  0  0
 23 25  1  0  0  0  0
 23 26  1  0  0  0  0
 26 27  2  0  0  0  0
 26 28  1  0  0  0  0
 28 29  1  0  0  0  0
 28 30  1  0  0  0  0
 30 31  2  0  0  0  0
 30 32  1  0  0  0  0
 32 21  1  0  0  0  0
 32 33  1  0  0  0  0
 32 34  1  0  0  0  0
 16 35  1  0  0  0  0
 35 36  1  0  0  0  0
 14 37  1  0  0  0  0
 37  1  1  0  0  0  0
 37 38  1  0  0  0  0
 37 39  1  0  0  0  0
  1 40  1  0  0  0  0
 40 41  1  0  0  0  0
 40 42  1  0  0  0  0
 40 43  1  0  0  0  0
M  END
> <ChemID>
100063

> <source_casrn>
66-81-9

> <CAS>
66-81-9

> <SMILES>
C[C@@H]1C[C@@H]([C@H](O)CC2CC(=O)NC(=O)C2)C(=O)[C@@H](C)C1

> <NAME>
Cycloheximide

> <preferred_name>
Cycloheximide

> <iupac>
4-{(2R)-2-[(1S,3S,5S)-3,5-dimethyl-2-oxocyclohexyl]-2-hydroxyethyl}piperidine-2,6-dione

> <MPID>
100077

> <dsstox_substance_id>
DTXSID6024882

> <Canonical_QSARr>
CC1CC(C(O)CC2CC(=O)NC(=O)C2)C(=O)C(C)C1

> <InChI_Code_QSARr>
InChI=1S/C15H23NO4/c1-8-3-9(2)15(20)11(4-8)12(17)5-10-6-13(18)16-14(19)7-10/h8-12,17H,3-7H2,1-2H3,(H,16,18,19)

> <InChI Key_QSARr>
YPHMISFOHDHNIV-UHFFFAOYSA-N

> <Salt_Solvent>
?

> <Ready_Biodeg>
1.0

$$$$
100068
  -INDIGO-08031722522D

 10  9  0  0  0  0  0  0  0  0999 V2000
    1.3856    0.8000    0.0000 C   0  0  0  0  0  0  0  0  0  0  0  0
    2.7713    1.6000    0.0000 H   0  0  0  0  0  0  0  0  0  0  0  0
    2.7713    0.0000    0.0000 H   0  0  0  0  0  0  0  0  0  0  0  0
    1.3856    2.4000    0.0000 H   0  0  0  0  0  0  0  0  0  0  0  0
    0.0000    0.0000    0.0000 C   0  0  0  0  0  0  0  0  0  0  0  0
   -1.3856    0.8000    0.0000 C   0  0  0  0  0  0  0  0  0  0  0  0
   -2.7713    1.6000    0.0000 H   0  0  0  0  0  0  0  0  0  0  0  0
   -2.7713    0.0000    0.0000 H   0  0  0  0  0  0  0  0  0  0  0  0
   -1.3856    2.4000    0.0000 H   0  0  0  0  0  0  0  0  0  0  0  0
    0.0000   -1.6000    0.0000 O   0  0  0  0  0  0  0  0  0  0  0  0
  1  2  1  0  0  0  0
  1  3  1  0  0  0  0
  1  4  1  0  0  0  0
  1  5  1  0  0  0  0
  5  6  1  0  0  0  0
  6  7  1  0  0  0  0
  6  8  1  0  0  0  0
  6  9  1  0  0  0  0
  5 10  2  0  0  0  0
M  END
> <ChemID>
100068

> <source_casrn>
67-64-1

> <CAS>
67-64-1

> <SMILES>
CC(C)=O

> <NAME>
ACETONE

> <preferred_name>
Acetone

> <iupac>
propan-2-one

> <MPID>
100081

> <dsstox_substance_id>
DTXSID8021482

> <Canonical_QSARr>
CC(C)=O

> <InChI_Code_QSARr>
InChI=1S/C3H6O/c1-3(2)4/h1-2H3

> <InChI Key_QSARr>
CSCPPACGZOOCGX-UHFFFAOYSA-N

> <Salt_Solvent>
?

> <Ready_Biodeg>
1.0

$$$$
100072
  -INDIGO-08031722522D

  9  8  0  0  0  0  0  0  0  0999 V2000
    2.4000    1.3856    0.0000 O   0  0  0  0  0  0  0  0  0  0  0  0
    1.6000    0.0000    0.0000 C   0  0  0  0  0  0  0  0  0  0  0  0
    2.4000   -1.3856    0.0000 O   0  0  0  0  0  0  0  0  0  0  0  0
    4.0000   -1.3856    0.0000 H   0  0  0  0  0  0  0  0  0  0  0  0
    0.0000    0.0000    0.0000 C   0  0  0  0  0  0  0  0  0  0  0  0
   -0.2089   -1.5863    0.0000 H   0  0  0  0  0  0  0  0  0  0  0  0
   -1.2693   -0.9740    0.0000 H   0  0  0  0  0  0  0  0  0  0  0  0
   -0.8000    1.3856    0.0000 S   0  0  0  0  0  0  0  0  0  0  0  0
   -2.4000    1.3856    0.0000 H   0  0  0  0  0  0  0  0  0  0  0  0
  1  2  2  0  0  0  0
  2  3  1  0  0  0  0
  3  4  1  0  0  0  0
  2  5  1  0  0  0  0
  5  6  1  0  0  0  0
  5  7  1  0  0  0  0
  5  8  1  0  0  0  0
  8  9  1  0  0  0  0
M  END
> <ChemID>
100072

> <source_casrn>
68-11-1

> <CAS>
68-11-1

> <SMILES>
OC(=O)CS

> <NAME>
Acetic acid, mercapto-

> <preferred_name>
Thioglycolic acid

> <iupac>
sulfanylacetic acid

> <MPID>
100085

> <dsstox_substance_id>
DTXSID8026141

> <Canonical_QSARr>
OC(=O)CS

> <InChI_Code_QSARr>
InChI=1S/C2H4O2S/c3-2(4)1-5/h5H,1H2,(H,3,4)

> <InChI Key_QSARr>
CWERGRDVMFNCDR-UHFFFAOYSA-N

> <Salt_Solvent>
?

> <Ready_Biodeg>
1.0

$$$$
100076
  -INDIGO-08031722522D

 12 11  0  0  0  0  0  0  0  0999 V2000
    2.7713    0.0000    0.0000 O   0  0  0  0  0  0  0  0  0  0  0  0
    4.1569    0.8000    0.0000 H   0  0  0  0  0  0  0  0  0  0  0  0
    1.3856    0.8000    0.0000 C   0  0  0  0  0  0  0  0  0  0  0  0
    0.7733    2.2782    0.0000 H   0  0  0  0  0  0  0  0  0  0  0  0
    1.9980    2.2782    0.0000 H   0  0  0  0  0  0  0  0  0  0  0  0
    0.0000    0.0000    0.0000 C   0  0  0  0  0  0  0  0  0  0  0  0
    0.6123   -1.4782    0.0000 H   0  0  0  0  0  0  0  0  0  0  0  0
   -0.6123   -1.4782    0.0000 H   0  0  0  0  0  0  0  0  0  0  0  0
   -1.3856    0.8000    0.0000 C   0  0  0  0  0  0  0  0  0  0  0  0
   -2.7713    1.6000    0.0000 H   0  0  0  0  0  0  0  0  0  0  0  0
   -2.7713    0.0000    0.0000 H   0  0  0  0  0  0  0  0  0  0  0  0
   -1.3856    2.4000    0.0000 H   0  0  0  0  0  0  0  0  0  0  0  0
  1  2  1  0  0  0  0
  1  3  1  0  0  0  0
  3  4  1  0  0  0  0
  3  5  1  0  0  0  0
  3  6  1  0  0  0  0
  6  7  1  0  0  0  0
  6  8  1  0  0  0  0
  6  9  1  0  0  0  0
  9 10  1  0  0  0  0
  9 11  1  0  0  0  0
  9 12  1  0  0  0  0
M  END
> <ChemID>
100076

> <source_casrn>
71-23-8

> <CAS>
71-23-8

> <SMILES>
CCCO

> <NAME>
1-Propanol

> <preferred_name>
1-Propanol

> <iupac>
propan-1-ol

> <MPID>
100089

> <dsstox_substance_id>
DTXSID2021739

> <Canonical_QSARr>
CCCO

> <InChI_Code_QSARr>
InChI=1S/C3H8O/c1-2-3-4/h4H,2-3H2,1H3

> <InChI Key_QSARr>
BDERNNFJNOPAEC-UHFFFAOYSA-N

> <Salt_Solvent>
?

> <Ready_Biodeg>
1.0

$$$$
100080
  -INDIGO-08031722522D

  8  7  0  0  0  0  0  0  0  0999 V2000
    0.0000    0.0000    0.0000 C   0  0  0  0  0  0  0  0  0  0  0  0
    1.6000   -0.0000    0.0000 H   0  0  0  0  0  0  0  0  0  0  0  0
    0.8000   -1.3856    0.0000 H   0  0  0  0  0  0  0  0  0  0  0  0
    0.8000    1.3856    0.0000 H   0  0  0  0  0  0  0  0  0  0  0  0
   -1.6000    0.0000    0.0000 C   0  0  0  0  0  0  0  0  0  0  0  0
   -3.2000    0.0000    0.0000 Cl  0  0  0  0  0  0  0  0  0  0  0  0
   -2.4000   -1.3856    0.0000 Cl  0  0  0  0  0  0  0  0  0  0  0  0
   -2.4000    1.3856    0.0000 Cl  0  0  0  0  0  0  0  0  0  0  0  0
  1  2  1  0  0  0  0
  1  3  1  0  0  0  0
  1  4  1  0  0  0  0
  1  5  1  0  0  0  0
  5  6  1  0  0  0  0
  5  7  1  0  0  0  0
  5  8  1  0  0  0  0
M  END
> <ChemID>
100080

> <source_casrn>
71-55-6

> <CAS>
71-55-6

> <SMILES>
CC(Cl)(Cl)Cl

> <NAME>
Ethane, 1,1,1-trichloro-

> <preferred_name>
1,1,1-Trichloroethane

> <iupac>
1,1,1-trichloroethane

> <MPID>
100093

> <dsstox_substance_id>
DTXSID0021381

> <Canonical_QSARr>
CC(Cl)(Cl)Cl

> <InChI_Code_QSARr>
InChI=1S/C2H3Cl3/c1-2(3,4)5/h1H3

> <InChI Key_QSARr>
UOCLXMDMGBRAIB-UHFFFAOYSA-N

> <Salt_Solvent>
?

> <Ready_Biodeg>
0.0

$$$$
100085
  -INDIGO-08031722522D

  5  4  0  0  0  0  0  0  0  0999 V2000
    0.0000    0.0000    0.0000 C   0  0  0  0  0  0  0  0  0  0  0  0
    0.8000    1.3856    0.0000 H   0  0  0  0  0  0  0  0  0  0  0  0
   -1.3856    0.8000    0.0000 H   0  0  0  0  0  0  0  0  0  0  0  0
    1.3856   -0.8000    0.0000 H   0  0  0  0  0  0  0  0  0  0  0  0
   -0.8000   -1.3856    0.0000 Br  0  0  0  0  0  0  0  0  0  0  0  0
  1  2  1  0  0  0  0
  1  3  1  0  0  0  0
  1  4  1  0  0  0  0
  1  5  1  0  0  0  0
M  END
> <ChemID>
100085

> <source_casrn>
74-83-9

> <CAS>
74-83-9

> <SMILES>
CBr

> <NAME>
Methane, bromo-

> <preferred_name>
Methyl bromide

> <iupac>
bromomethane

> <MPID>
100098

> <dsstox_substance_id>
DTXSID8020832

> <Canonical_QSARr>
CBr

> <InChI_Code_QSARr>
InChI=1S/CH3Br/c1-2/h1H3

> <InChI Key_QSARr>
GZUXJHMPEANEGY-UHFFFAOYSA-N

> <Salt_Solvent>
?

> <Ready_Biodeg>
0.0

$$$$
100089
  -INDIGO-08031722522D

  8  7  0  0  0  0  0  0  0  0999 V2000
    0.0000    0.0000    0.0000 C   0  0  0  0  0  0  0  0  0  0  0  0
    1.6000   -0.0000    0.0000 H   0  0  0  0  0  0  0  0  0  0  0  0
    0.8000   -1.3856    0.0000 H   0  0  0  0  0  0  0  0  0  0  0  0
    0.8000    1.3856    0.0000 H   0  0  0  0  0  0  0  0  0  0  0  0
   -1.6000    0.0000    0.0000 C   0  0  0  0  0  0  0  0  0  0  0  0
   -3.2000    0.0000    0.0000 H   0  0  0  0  0  0  0  0  0  0  0  0
   -2.4000   -1.3856    0.0000 H   0  0  0  0  0  0  0  0  0  0  0  0
   -2.4000    1.3856    0.0000 Br  0  0  0  0  0  0  0  0  0  0  0  0
  1  2  1  0  0  0  0
  1  3  1  0  0  0  0
  1  4  1  0  0  0  0
  1  5  1  0  0  0  0
  5  6  1  0  0  0  0
  5  7  1  0  0  0  0
  5  8  1  0  0  0  0
M  END
> <ChemID>
100089

> <source_casrn>
74-96-4

> <CAS>
74-96-4

> <SMILES>
CCBr

> <NAME>
Ethane, bromo-

> <preferred_name>
Bromoethane

> <iupac>
bromoethane

> <MPID>
100102

> <dsstox_substance_id>
DTXSID6020199

> <Canonical_QSARr>
CCBr

> <InChI_Code_QSARr>
InChI=1S/C2H5Br/c1-2-3/h2H2,1H3

> <InChI Key_QSARr>
RDHPKYGYEGBMSE-UHFFFAOYSA-N

> <Salt_Solvent>
?

> <Ready_Biodeg>
0.0

$$$$
100093
  -INDIGO-08031722522D

  6  5  0  0  0  0  0  0  0  0999 V2000
    0.0000    0.0000    0.0000 C   0  0  0  0  0  0  0  0  0  0  0  0
    1.6000   -0.0000    0.0000 H   0  0  0  0  0  0  0  0  0  0  0  0
    0.8000    1.3856    0.0000 H   0  0  0  0  0  0  0  0  0  0  0  0
    0.8000   -1.3856    0.0000 H   0  0  0  0  0  0  0  0  0  0  0  0
   -1.6000    0.0000    0.0000 C   0  0  0  0  0  0  0  0  0  0  0  0
   -3.2000    0.0000    0.0000 N   0  0  0  0  0  0  0  0  0  0  0  0
  1  2  1  0  0  0  0
  1  3  1  0  0  0  0
  1  4  1  0  0  0  0
  1  5  1  0  0  0  0
  5  6  3  0  0  0  0
M  END
> <ChemID>
100093

> <source_casrn>
75-05-8

> <CAS>
75-05-8

> <SMILES>
CC#N

> <NAME>
Acetonitrile

> <preferred_name>
Acetonitrile

> <iupac>
acetonitrile

> <MPID>
100106

> <dsstox_substance_id>
DTXSID7020009

> <Canonical_QSARr>
CC#N

> <InChI_Code_QSARr>
InChI=1S/C2H3N/c1-2-3/h1H3

> <InChI Key_QSARr>
WEVYAHXRMPXWCK-UHFFFAOYSA-N

> <Salt_Solvent>
?

> <Ready_Biodeg>
1.0

$$$$
100097
  -INDIGO-08031722522D

  5  4  0  0  0  0  0  0  0  0999 V2000
    0.0000    0.0000    0.0000 C   0  0  0  0  0  0  0  0  0  0  0  0
    0.8000    1.3856    0.0000 H   0  0  0  0  0  0  0  0  0  0  0  0
   -1.3856    0.8000    0.0000 Br  0  0  0  0  0  0  0  0  0  0  0  0
    1.3856   -0.8000    0.0000 Br  0  0  0  0  0  0  0  0  0  0  0  0
   -0.8000   -1.3856    0.0000 Br  0  0  0  0  0  0  0  0  0  0  0  0
  1  2  1  0  0  0  0
  1  3  1  0  0  0  0
  1  4  1  0  0  0  0
  1  5  1  0  0  0  0
M  END
> <ChemID>
100097

> <source_casrn>
75-25-2

> <CAS>
75-25-2

> <SMILES>
BrC(Br)Br

> <NAME>
Methane, tribromo-

> <preferred_name>
Bromoform

> <iupac>
tribromomethane

> <MPID>
100110

> <dsstox_substance_id>
DTXSID1021374

> <Canonical_QSARr>
BrC(Br)Br

> <InChI_Code_QSARr>
InChI=1S/CHBr3/c2-1(3)4/h1H

> <InChI Key_QSARr>
DIKBFYAXUHHXCS-UHFFFAOYSA-N

> <Salt_Solvent>
?

> <Ready_Biodeg>
0.0

$$$$
100101
  -INDIGO-08031722522D

  6  5  0  0  0  0  0  0  0  0999 V2000
   -0.0000    0.0000    0.0000 C   0  0  0  0  0  0  0  0  0  0  0  0
    0.8000    1.3856    0.0000 H   0  0  0  0  0  0  0  0  0  0  0  0
    0.8000   -1.3856    0.0000 H   0  0  0  0  0  0  0  0  0  0  0  0
   -1.6000    0.0000    0.0000 C   0  0  0  0  0  0  0  0  0  0  0  0
   -2.4000    1.3856    0.0000 Cl  0  0  0  0  0  0  0  0  0  0  0  0
   -2.4000   -1.3856    0.0000 Cl  0  0  0  0  0  0  0  0  0  0  0  0
  1  2  1  0  0  0  0
  1  3  1  0  0  0  0
  1  4  2  0  0  0  0
  4  5  1  0  0  0  0
  4  6  1  0  0  0  0
M  END
> <ChemID>
100101

> <source_casrn>
75-35-4

> <CAS>
75-35-4

> <SMILES>
C=C(Cl)Cl

> <NAME>
Ethene, 1,1-dichloro-

> <preferred_name>
1,1-Dichloroethylene

> <iupac>
1,1-dichloroethene

> <MPID>
100114

> <dsstox_substance_id>
DTXSID8021438

> <Canonical_QSARr>
C=C(Cl)Cl

> <InChI_Code_QSARr>
InChI=1S/C2H2Cl2/c1-2(3)4/h1H2

> <InChI Key_QSARr>
LGXVIGDEPROXKC-UHFFFAOYSA-N

> <Salt_Solvent>
?

> <Ready_Biodeg>
0.0

$$$$
100105
  -INDIGO-08031722522D

 15 14  0  0  0  0  0  0  0  0999 V2000
    0.0000    0.0000    0.0000 C   0  0  0  0  0  0  0  0  0  0  0  0
    0.8000    1.3856    0.0000 C   0  0  0  0  0  0  0  0  0  0  0  0
    1.6000    2.7713    0.0000 H   0  0  0  0  0  0  0  0  0  0  0  0
    2.4000    1.3856    0.0000 H   0  0  0  0  0  0  0  0  0  0  0  0
    0.0000    2.7713    0.0000 H   0  0  0  0  0  0  0  0  0  0  0  0
   -1.3856    0.8000    0.0000 C   0  0  0  0  0  0  0  0  0  0  0  0
   -2.7713    1.6000    0.0000 H   0  0  0  0  0  0  0  0  0  0  0  0
   -2.7713    0.0000    0.0000 H   0  0  0  0  0  0  0  0  0  0  0  0
   -1.3856    2.4000    0.0000 H   0  0  0  0  0  0  0  0  0  0  0  0
   -0.8000   -1.3856    0.0000 C   0  0  0  0  0  0  0  0  0  0  0  0
   -1.6000   -2.7713    0.0000 H   0  0  0  0  0  0  0  0  0  0  0  0
    0.0000   -2.7713    0.0000 H   0  0  0  0  0  0  0  0  0  0  0  0
   -2.4000   -1.3856    0.0000 H   0  0  0  0  0  0  0  0  0  0  0  0
    1.3856   -0.8000    0.0000 O   0  0  0  0  0  0  0  0  0  0  0  0
    1.3856   -2.4000    0.0000 H   0  0  0  0  0  0  0  0  0  0  0  0
  1  2  1  0  0  0  0
  2  3  1  0  0  0  0
  2  4  1  0  0  0  0
  2  5  1  0  0  0  0
  1  6  1  0  0  0  0
  6  7  1  0  0  0  0
  6  8  1  0  0  0  0
  6  9  1  0  0  0  0
  1 10  1  0  0  0  0
 10 11  1  0  0  0  0
 10 12  1  0  0  0  0
 10 13  1  0  0  0  0
  1 14  1  0  0  0  0
 14 15  1  0  0  0  0
M  END
> <ChemID>
100105

> <source_casrn>
75-65-0

> <CAS>
75-65-0

> <SMILES>
CC(C)(C)O

> <NAME>
2-Propanol, 2-methyl-

> <preferred_name>
tert-Butyl alcohol

> <iupac>
2-methylpropan-2-ol

> <MPID>
100118

> <dsstox_substance_id>
DTXSID8020204

> <Canonical_QSARr>
CC(C)(C)O

> <InChI_Code_QSARr>
InChI=1S/C4H10O/c1-4(2,3)5/h5H,1-3H3

> <InChI Key_QSARr>
DKGAVHZHDRPRBM-UHFFFAOYSA-N

> <Salt_Solvent>
?

> <Ready_Biodeg>
0.0

$$$$
100109
  -INDIGO-08031722522D

  7  6  0  0  0  0  0  0  0  0999 V2000
    2.4000   -1.3856    0.0000 O   0  0  0  0  0  0  0  0  0  0  0  0
    1.6000    0.0000    0.0000 C   0  0  0  0  0  0  0  0  0  0  0  0
    2.4000    1.3856    0.0000 H   0  0  0  0  0  0  0  0  0  0  0  0
    0.0000    0.0000    0.0000 C   0  0  0  0  0  0  0  0  0  0  0  0
   -1.6000    0.0000    0.0000 Cl  0  0  0  0  0  0  0  0  0  0  0  0
   -0.8000    1.3856    0.0000 Cl  0  0  0  0  0  0  0  0  0  0  0  0
   -0.8000   -1.3856    0.0000 Cl  0  0  0  0  0  0  0  0  0  0  0  0
  1  2  2  0  0  0  0
  2  3  1  0  0  0  0
  2  4  1  0  0  0  0
  4  5  1  0  0  0  0
  4  6  1  0  0  0  0
  4  7  1  0  0  0  0
M  END
> <ChemID>
100109

> <source_casrn>
75-87-6

> <CAS>
75-87-6

> <SMILES>
O=CC(Cl)(Cl)Cl

> <NAME>
Acetaldehyde, trichloro-

> <preferred_name>
Chloral

> <iupac>
trichloroacetaldehyde

> <MPID>
100122

> <dsstox_substance_id>
DTXSID7024744

> <Canonical_QSARr>
O=CC(Cl)(Cl)Cl

> <InChI_Code_QSARr>
InChI=1S/C2HCl3O/c3-2(4,5)1-6/h1H

> <InChI Key_QSARr>
HFFLGKNGCAIQMO-UHFFFAOYSA-N

> <Salt_Solvent>
?

> <Ready_Biodeg>
0.0

$$$$
100113
  -INDIGO-08031722522D

  8  7  0  0  0  0  0  0  0  0999 V2000
   -0.8000    1.3856    0.0000 F   0  0  0  0  0  0  0  0  0  0  0  0
    0.0000    0.0000    0.0000 C   0  0  0  0  0  0  0  0  0  0  0  0
    1.6000    0.0000    0.0000 C   0  0  0  0  0  0  0  0  0  0  0  0
    3.2000    0.0000    0.0000 F   0  0  0  0  0  0  0  0  0  0  0  0
    2.4000   -1.3856    0.0000 Cl  0  0  0  0  0  0  0  0  0  0  0  0
    2.4000    1.3856    0.0000 Cl  0  0  0  0  0  0  0  0  0  0  0  0
   -1.6000   -0.0000    0.0000 Cl  0  0  0  0  0  0  0  0  0  0  0  0
   -0.8000   -1.3856    0.0000 Cl  0  0  0  0  0  0  0  0  0  0  0  0
  1  2  1  0  0  0  0
  2  3  1  0  0  0  0
  3  4  1  0  0  0  0
  3  5  1  0  0  0  0
  3  6  1  0  0  0  0
  2  7  1  0  0  0  0
  2  8  1  0  0  0  0
M  END
> <ChemID>
100113

> <source_casrn>
76-12-0

> <CAS>
76-12-0

> <SMILES>
FC(Cl)(Cl)C(F)(Cl)Cl

> <NAME>
Ethane, 1,1,2,2-tetrachloro-1,2-difluoro-

> <preferred_name>
1,2-Difluoro-1,1,2,2-tetrachloroethane

> <iupac>
1,1,2,2-tetrachloro-1,2-difluoroethane

> <MPID>
100126

> <dsstox_substance_id>
DTXSID5026091

> <Canonical_QSARr>
FC(Cl)(Cl)C(F)(Cl)Cl

> <InChI_Code_QSARr>
InChI=1S/C2Cl4F2/c3-1(4,7)2(5,6)8

> <InChI Key_QSARr>
UGCSPKPEHQEOSR-UHFFFAOYSA-N

> <Salt_Solvent>
?

> <Ready_Biodeg>
0.0

$$$$
100117
  -INDIGO-08031722522D

 35 37  0  0  0  0  0  0  0  0999 V2000
   -0.0001   -0.0000    0.0000 Si  0  0  0  0  0  0  0  0  0  0  0  0
   -0.0001   -1.6000    0.0000 Cl  0  0  0  0  0  0  0  0  0  0  0  0
    1.5999   -0.0000    0.0000 C   0  0  0  0  0  0  0  0  0  0  0  0
    2.3999    1.3856    0.0000 C   0  0  0  0  0  0  0  0  0  0  0  0
    1.5999    2.7712    0.0000 H   0  0  0  0  0  0  0  0  0  0  0  0
    4.0000    1.3856    0.0000 C   0  0  0  0  0  0  0  0  0  0  0  0
    4.8000    2.7712    0.0000 H   0  0  0  0  0  0  0  0  0  0  0  0
    4.8000   -0.0000    0.0000 C   0  0  0  0  0  0  0  0  0  0  0  0
    6.4000   -0.0000    0.0000 H   0  0  0  0  0  0  0  0  0  0  0  0
    4.0000   -1.3857    0.0000 C   0  0  0  0  0  0  0  0  0  0  0  0
    4.8000   -2.7713    0.0000 H   0  0  0  0  0  0  0  0  0  0  0  0
    2.3999   -1.3857    0.0000 C   0  0  0  0  0  0  0  0  0  0  0  0
    1.5999   -2.7713    0.0000 H   0  0  0  0  0  0  0  0  0  0  0  0
    0.2778    1.5756    0.0000 C   0  0  0  0  0  0  0  0  0  0  0  0
   -0.7507    2.8014    0.0000 C   0  0  0  0  0  0  0  0  0  0  0  0
   -1.5999    2.7712    0.0000 H   0  0  0  0  0  0  0  0  0  0  0  0
   -0.2034    4.3048    0.0000 C   0  0  0  0  0  0  0  0  0  0  0  0
   -1.2318    5.5306    0.0000 H   0  0  0  0  0  0  0  0  0  0  0  0
    1.3724    4.5827    0.0000 C   0  0  0  0  0  0  0  0  0  0  0  0
    1.9195    6.0862    0.0000 H   0  0  0  0  0  0  0  0  0  0  0  0
    2.4007    3.3570    0.0000 C   0  0  0  0  0  0  0  0  0  0  0  0
    3.9765    3.6349    0.0000 H   0  0  0  0  0  0  0  0  0  0  0  0
    1.8534    1.8535    0.0000 C   0  0  0  0  0  0  0  0  0  0  0  0
    2.8820    0.6279    0.0000 H   0  0  0  0  0  0  0  0  0  0  0  0
   -1.5999   -0.0000    0.0000 C   0  0  0  0  0  0  0  0  0  0  0  0
   -2.3999    1.3856    0.0000 C   0  0  0  0  0  0  0  0  0  0  0  0
   -2.3451    2.2338    0.0000 H   0  0  0  0  0  0  0  0  0  0  0  0
   -4.0000    1.3856    0.0000 C   0  0  0  0  0  0  0  0  0  0  0  0
   -4.8000    2.7712    0.0000 H   0  0  0  0  0  0  0  0  0  0  0  0
   -4.8000   -0.0000    0.0000 C   0  0  0  0  0  0  0  0  0  0  0  0
   -6.4000   -0.0000    0.0000 H   0  0  0  0  0  0  0  0  0  0  0  0
   -4.0000   -1.3857    0.0000 C   0  0  0  0  0  0  0  0  0  0  0  0
   -4.8000   -2.7713    0.0000 H   0  0  0  0  0  0  0  0  0  0  0  0
   -2.3999   -1.3857    0.0000 C   0  0  0  0  0  0  0  0  0  0  0  0
   -1.5999   -2.7713    0.0000 H   0  0  0  0  0  0  0  0  0  0  0  0
  1  2  1  0  0  0  0
  1  3  1  0  0  0  0
  3  4  1  0  0  0  0
  4  5  1  0  0  0  0
  4  6  2  0  0  0  0
  6  7  1  0  0  0  0
  6  8  1  0  0  0  0
  8  9  1  0  0  0  0
  8 10  2  0  0  0  0
 10 11  1  0  0  0  0
 10 12  1  0  0  0  0
 12  3  2  0  0  0  0
 12 13  1  0  0  0  0
  1 14  1  0  0  0  0
 14 15  1  0  0  0  0
 15 16  1  0  0  0  0
 15 17  2  0  0  0  0
 17 18  1  0  0  0  0
 17 19  1  0  0  0  0
 19 20  1  0  0  0  0
 19 21  2  0  0  0  0
 21 22  1  0  0  0  0
 21 23  1  0  0  0  0
 23 14  2  0  0  0  0
 23 24  1  0  0  0  0
  1 25  1  0  0  0  0
 25 26  1  0  0  0  0
 26 27  1  0  0  0  0
 26 28  2  0  0  0  0
 28 29  1  0  0  0  0
 28 30  1  0  0  0  0
 30 31  1  0  0  0  0
 30 32  2  0  0  0  0
 32 33  1  0  0  0  0
 32 34  1  0  0  0  0
 34 25  2  0  0  0  0
 34 35  1  0  0  0  0
M  END
> <ChemID>
100117

> <source_casrn>
76-86-8

> <CAS>
NOCAS_870398

> <SMILES>
Cl[Si](c(ccc1)cc1)(c(ccc2)cc2)c(ccc3)cc3

> <NAME>
Silane, chlorotriphenyl-

> <preferred_name>


> <iupac>


> <MPID>
100130

> <dsstox_substance_id>
DTXSID70870398

> <Canonical_QSARr>
Cl[Si](c1ccccc1)(c1ccccc1)c1ccccc1

> <InChI_Code_QSARr>
InChI=1S/C18H15ClSi/c19-20(16-10-4-1-5-11-16,17-12-6-2-7-13-17)18-14-8-3-9-15-18/h1-15H

> <InChI Key_QSARr>
MNKYQPOFRKPUAE-UHFFFAOYSA-N

> <Salt_Solvent>
?

> <Ready_Biodeg>
0.0

$$$$
100123
  -INDIGO-08031722522D

 39 38  0  0  0  0  0  0  0  0999 V2000
   -4.1570    0.8000    0.0000 C   0  0  0  0  0  0  0  0  0  0  0  0
   -4.1570    2.4000    0.0000 O   0  0  0  0  0  0  0  0  0  0  0  0
   -2.7713   -0.0000    0.0000 O   0  0  0  0  0  0  0  0  0  0  0  0
   -1.3857    0.8000    0.0000 C   0  0  0  0  0  0  0  0  0  0  0  0
   -1.9979    2.2783    0.0000 H   0  0  0  0  0  0  0  0  0  0  0  0
   -0.7734    2.2783    0.0000 H   0  0  0  0  0  0  0  0  0  0  0  0
    0.0000   -0.0000    0.0000 C   0  0  0  0  0  0  0  0  0  0  0  0
    1.3856   -0.8000    0.0000 C   0  0  0  0  0  0  0  0  0  0  0  0
    2.1857    0.5857    0.0000 H   0  0  0  0  0  0  0  0  0  0  0  0
    2.7713   -1.6000    0.0000 C   0  0  0  0  0  0  0  0  0  0  0  0
    1.9714   -2.9856    0.0000 H   0  0  0  0  0  0  0  0  0  0  0  0
    3.9969   -2.6284    0.0000 C   0  0  0  0  0  0  0  0  0  0  0  0
    5.2226   -3.6569    0.0000 H   0  0  0  0  0  0  0  0  0  0  0  0
    5.5005   -2.0812    0.0000 H   0  0  0  0  0  0  0  0  0  0  0  0
    3.7191   -4.2042    0.0000 H   0  0  0  0  0  0  0  0  0  0  0  0
    3.5713   -0.2143    0.0000 C   0  0  0  0  0  0  0  0  0  0  0  0
    4.3712    1.1713    0.0000 H   0  0  0  0  0  0  0  0  0  0  0  0
    5.1712   -0.2143    0.0000 H   0  0  0  0  0  0  0  0  0  0  0  0
    4.3712   -1.6000    0.0000 H   0  0  0  0  0  0  0  0  0  0  0  0
    0.5856   -2.1856    0.0000 O   0  0  0  0  0  0  0  0  0  0  0  0
    1.1328   -3.6892    0.0000 H   0  0  0  0  0  0  0  0  0  0  0  0
    0.8000    1.3856    0.0000 C   0  0  0  0  0  0  0  0  0  0  0  0
    1.6000    2.7713    0.0000 H   0  0  0  0  0  0  0  0  0  0  0  0
    0.2528    2.8891    0.0000 H   0  0  0  0  0  0  0  0  0  0  0  0
    2.3757    1.6635    0.0000 H   0  0  0  0  0  0  0  0  0  0  0  0
   -0.7999   -1.3857    0.0000 C   0  0  0  0  0  0  0  0  0  0  0  0
   -1.6001   -2.7713    0.0000 H   0  0  0  0  0  0  0  0  0  0  0  0
   -2.4001   -1.3857    0.0000 H   0  0  0  0  0  0  0  0  0  0  0  0
   -0.2527   -2.8892    0.0000 H   0  0  0  0  0  0  0  0  0  0  0  0
   -5.5426   -0.0000    0.0000 C   0  0  0  0  0  0  0  0  0  0  0  0
   -4.7426   -1.3857    0.0000 H   0  0  0  0  0  0  0  0  0  0  0  0
   -6.9283   -0.8000    0.0000 C   0  0  0  0  0  0  0  0  0  0  0  0
   -8.3138   -1.6000    0.0000 H   0  0  0  0  0  0  0  0  0  0  0  0
   -8.3138   -0.0000    0.0000 H   0  0  0  0  0  0  0  0  0  0  0  0
   -6.9283   -2.4000    0.0000 H   0  0  0  0  0  0  0  0  0  0  0  0
   -6.3425    1.3856    0.0000 C   0  0  0  0  0  0  0  0  0  0  0  0
   -7.1425    2.7713    0.0000 H   0  0  0  0  0  0  0  0  0  0  0  0
   -7.9426    1.3856    0.0000 H   0  0  0  0  0  0  0  0  0  0  0  0
   -5.5426    2.7713    0.0000 H   0  0  0  0  0  0  0  0  0  0  0  0
  1  2  2  0  0  0  0
  1  3  1  0  0  0  0
  3  4  1  0  0  0  0
  4  5  1  0  0  0  0
  4  6  1  0  0  0  0
  4  7  1  0  0  0  0
  7  8  1  0  0  0  0
  8  9  1  0  0  0  0
  8 10  1  0  0  0  0
 10 11  1  0  0  0  0
 10 12  1  0  0  0  0
 12 13  1  0  0  0  0
 12 14  1  0  0  0  0
 12 15  1  0  0  0  0
 10 16  1  0  0  0  0
 16 17  1  0  0  0  0
 16 18  1  0  0  0  0
 16 19  1  0  0  0  0
  8 20  1  0  0  0  0
 20 21  1  0  0  0  0
  7 22  1  0  0  0  0
 22 23  1  0  0  0  0
 22 24  1  0  0  0  0
 22 25  1  0  0  0  0
  7 26  1  0  0  0  0
 26 27  1  0  0  0  0
 26 28  1  0  0  0  0
 26 29  1  0  0  0  0
  1 30  1  0  0  0  0
 30 31  1  0  0  0  0
 30 32  1  0  0  0  0
 32 33  1  0  0  0  0
 32 34  1  0  0  0  0
 32 35  1  0  0  0  0
 30 36  1  0  0  0  0
 36 37  1  0  0  0  0
 36 38  1  0  0  0  0
 36 39  1  0  0  0  0
M  END
> <ChemID>
100123

> <source_casrn>
77-68-9

> <CAS>
NOCAS_872295

> <SMILES>
O=C(OCC(C(O)C(C)C)(C)C)C(C)C

> <NAME>
Propanoic acid, 2-methyl-, 3-hydroxy-2,2,4-trimethylpentyl ester

> <preferred_name>


> <iupac>


> <MPID>
100134

> <dsstox_substance_id>
DTXSID10872295

> <Canonical_QSARr>
CC(C)C(=O)OCC(C)(C)C(O)C(C)C

> <InChI_Code_QSARr>
InChI=1S/C12H24O3/c1-8(2)10(13)12(5,6)7-15-11(14)9(3)4/h8-10,13H,7H2,1-6H3

> <InChI Key_QSARr>
DAFHKNAQFPVRKR-UHFFFAOYSA-N

> <Salt_Solvent>
?

> <Ready_Biodeg>
1.0

$$$$
100127
  -INDIGO-08031722522D

 23 22  0  0  0  0  0  0  0  0999 V2000
    1.3856   -0.8000    0.0000 C   0  0  0  0  0  0  0  0  0  0  0  0
    2.9719   -0.5912    0.0000 H   0  0  0  0  0  0  0  0  0  0  0  0
    2.3596    0.4694    0.0000 H   0  0  0  0  0  0  0  0  0  0  0  0
   -0.0000    0.0000    0.0000 C   0  0  0  0  0  0  0  0  0  0  0  0
    0.8000    1.3856    0.0000 C   0  0  0  0  0  0  0  0  0  0  0  0
    0.5912    2.9719    0.0000 H   0  0  0  0  0  0  0  0  0  0  0  0
   -0.4694    2.3597    0.0000 H   0  0  0  0  0  0  0  0  0  0  0  0
    2.3757    1.6635    0.0000 O   0  0  0  0  0  0  0  0  0  0  0  0
    2.9229    3.1670    0.0000 H   0  0  0  0  0  0  0  0  0  0  0  0
   -0.8000   -1.3856    0.0000 C   0  0  0  0  0  0  0  0  0  0  0  0
   -0.5911   -2.9719    0.0000 H   0  0  0  0  0  0  0  0  0  0  0  0
    0.4693   -2.3597    0.0000 H   0  0  0  0  0  0  0  0  0  0  0  0
   -2.3756   -1.6635    0.0000 C   0  0  0  0  0  0  0  0  0  0  0  0
   -3.9514   -1.9413    0.0000 H   0  0  0  0  0  0  0  0  0  0  0  0
   -2.9230   -3.1670    0.0000 H   0  0  0  0  0  0  0  0  0  0  0  0
   -3.4042   -0.4378    0.0000 H   0  0  0  0  0  0  0  0  0  0  0  0
   -1.3857    0.8000    0.0000 C   0  0  0  0  0  0  0  0  0  0  0  0
   -2.9720    0.5912    0.0000 H   0  0  0  0  0  0  0  0  0  0  0  0
   -2.3597   -0.4694    0.0000 H   0  0  0  0  0  0  0  0  0  0  0  0
   -1.6634    2.3757    0.0000 O   0  0  0  0  0  0  0  0  0  0  0  0
   -3.1669    2.9229    0.0000 H   0  0  0  0  0  0  0  0  0  0  0  0
    1.6635   -2.3757    0.0000 O   0  0  0  0  0  0  0  0  0  0  0  0
    3.1670   -2.9229    0.0000 H   0  0  0  0  0  0  0  0  0  0  0  0
  1  2  1  0  0  0  0
  1  3  1  0  0  0  0
  1  4  1  0  0  0  0
  4  5  1  0  0  0  0
  5  6  1  0  0  0  0
  5  7  1  0  0  0  0
  5  8  1  0  0  0  0
  8  9  1  0  0  0  0
  4 10  1  0  0  0  0
 10 11  1  0  0  0  0
 10 12  1  0  0  0  0
 10 13  1  0  0  0  0
 13 14  1  0  0  0  0
 13 15  1  0  0  0  0
 13 16  1  0  0  0  0
  4 17  1  0  0  0  0
 17 18  1  0  0  0  0
 17 19  1  0  0  0  0
 17 20  1  0  0  0  0
 20 21  1  0  0  0  0
  1 22  1  0  0  0  0
 22 23  1  0  0  0  0
M  END
> <ChemID>
100127

> <source_casrn>
77-99-6

> <CAS>
77-99-6

> <SMILES>
OCC(CC)(CO)CO

> <NAME>
1,3-Propanediol, 2-ethyl-2-(hydroxymethyl)-

> <preferred_name>
2-Ethyl-2-(hydroxymethyl)-1,3-propanediol

> <iupac>
2-ethyl-2-(hydroxymethyl)propane-1,3-diol

> <MPID>
100138

> <dsstox_substance_id>
DTXSID2026448

> <Canonical_QSARr>
CCC(CO)(CO)CO

> <InChI_Code_QSARr>
InChI=1S/C6H14O3/c1-2-6(3-7,4-8)5-9/h7-9H,2-5H2,1H3

> <InChI Key_QSARr>
ZJCCRDAZUWHFQH-UHFFFAOYSA-N

> <Salt_Solvent>
?

> <Ready_Biodeg>
0.0

$$$$
100131
  -INDIGO-08031722522D

 44 43  0  0  0  0  0  0  0  0999 V2000
    4.0001   -1.3857    0.0000 P   0  0  0  0  0  0  0  0  0  0  0  0
    5.6000   -1.3857    0.0000 S   0  0  0  0  0  0  0  0  0  0  0  0
    6.4001   -0.0001    0.0000 C   0  0  0  0  0  0  0  0  0  0  0  0
    6.1911    1.5864    0.0000 H   0  0  0  0  0  0  0  0  0  0  0  0
    5.1308    0.9740    0.0000 H   0  0  0  0  0  0  0  0  0  0  0  0
    7.9999   -0.0001    0.0000 C   0  0  0  0  0  0  0  0  0  0  0  0
    8.2089   -1.5864    0.0000 H   0  0  0  0  0  0  0  0  0  0  0  0
    9.2692   -0.9740    0.0000 H   0  0  0  0  0  0  0  0  0  0  0  0
    8.8000    1.3857    0.0000 C   0  0  0  0  0  0  0  0  0  0  0  0
    8.5913    2.9720    0.0000 H   0  0  0  0  0  0  0  0  0  0  0  0
    7.5307    2.3596    0.0000 H   0  0  0  0  0  0  0  0  0  0  0  0
   10.4001    1.3857    0.0000 C   0  0  0  0  0  0  0  0  0  0  0  0
   12.0000    1.3857    0.0000 H   0  0  0  0  0  0  0  0  0  0  0  0
   11.1999    2.7713    0.0000 H   0  0  0  0  0  0  0  0  0  0  0  0
   11.1999   -0.0001    0.0000 H   0  0  0  0  0  0  0  0  0  0  0  0
    4.7999   -2.7712    0.0000 S   0  0  0  0  0  0  0  0  0  0  0  0
    3.9999   -4.1570    0.0000 C   0  0  0  0  0  0  0  0  0  0  0  0
    2.5218   -3.5446    0.0000 H   0  0  0  0  0  0  0  0  0  0  0  0
    2.5218   -4.7692    0.0000 H   0  0  0  0  0  0  0  0  0  0  0  0
    4.7999   -5.5426    0.0000 C   0  0  0  0  0  0  0  0  0  0  0  0
    6.2782   -6.1549    0.0000 H   0  0  0  0  0  0  0  0  0  0  0  0
    6.2782   -4.9302    0.0000 H   0  0  0  0  0  0  0  0  0  0  0  0
    3.9999   -6.9281    0.0000 C   0  0  0  0  0  0  0  0  0  0  0  0
    2.5218   -6.3160    0.0000 H   0  0  0  0  0  0  0  0  0  0  0  0
    2.5218   -7.5405    0.0000 H   0  0  0  0  0  0  0  0  0  0  0  0
    4.7999   -8.3139    0.0000 C   0  0  0  0  0  0  0  0  0  0  0  0
    5.6000   -9.6995    0.0000 H   0  0  0  0  0  0  0  0  0  0  0  0
    3.9999   -9.6995    0.0000 H   0  0  0  0  0  0  0  0  0  0  0  0
    6.4001   -8.3139    0.0000 H   0  0  0  0  0  0  0  0  0  0  0  0
    2.4000   -1.3857    0.0000 S   0  0  0  0  0  0  0  0  0  0  0  0
    1.5999   -0.0001    0.0000 C   0  0  0  0  0  0  0  0  0  0  0  0
    2.8692    0.9740    0.0000 H   0  0  0  0  0  0  0  0  0  0  0  0
    1.8089    1.5864    0.0000 H   0  0  0  0  0  0  0  0  0  0  0  0
    0.0001   -0.0001    0.0000 C   0  0  0  0  0  0  0  0  0  0  0  0
   -1.2692   -0.9740    0.0000 H   0  0  0  0  0  0  0  0  0  0  0  0
   -0.2089   -1.5864    0.0000 H   0  0  0  0  0  0  0  0  0  0  0  0
   -0.8000    1.3857    0.0000 C   0  0  0  0  0  0  0  0  0  0  0  0
    0.4693    2.3596    0.0000 H   0  0  0  0  0  0  0  0  0  0  0  0
   -0.5913    2.9720    0.0000 H   0  0  0  0  0  0  0  0  0  0  0  0
   -2.4001    1.3857    0.0000 C   0  0  0  0  0  0  0  0  0  0  0  0
   -4.0000    1.3857    0.0000 H   0  0  0  0  0  0  0  0  0  0  0  0
   -3.1999    2.7713    0.0000 H   0  0  0  0  0  0  0  0  0  0  0  0
   -3.1999   -0.0001    0.0000 H   0  0  0  0  0  0  0  0  0  0  0  0
    4.7999   -0.0001    0.0000 O   0  0  0  0  0  0  0  0  0  0  0  0
  1  2  1  0  0  0  0
  2  3  1  0  0  0  0
  3  4  1  0  0  0  0
  3  5  1  0  0  0  0
  3  6  1  0  0  0  0
  6  7  1  0  0  0  0
  6  8  1  0  0  0  0
  6  9  1  0  0  0  0
  9 10  1  0  0  0  0
  9 11  1  0  0  0  0
  9 12  1  0  0  0  0
 12 13  1  0  0  0  0
 12 14  1  0  0  0  0
 12 15  1  0  0  0  0
  1 16  1  0  0  0  0
 16 17  1  0  0  0  0
 17 18  1  0  0  0  0
 17 19  1  0  0  0  0
 17 20  1  0  0  0  0
 20 21  1  0  0  0  0
 20 22  1  0  0  0  0
 20 23  1  0  0  0  0
 23 24  1  0  0  0  0
 23 25  1  0  0  0  0
 23 26  1  0  0  0  0
 26 27  1  0  0  0  0
 26 28  1  0  0  0  0
 26 29  1  0  0  0  0
  1 30  1  0  0  0  0
 30 31  1  0  0  0  0
 31 32  1  0  0  0  0
 31 33  1  0  0  0  0
 31 34  1  0  0  0  0
 34 35  1  0  0  0  0
 34 36  1  0  0  0  0
 34 37  1  0  0  0  0
 37 38  1  0  0  0  0
 37 39  1  0  0  0  0
 37 40  1  0  0  0  0
 40 41  1  0  0  0  0
 40 42  1  0  0  0  0
 40 43  1  0  0  0  0
  1 44  2  0  0  0  0
M  END
> <ChemID>
100131

> <source_casrn>
78-48-8

> <CAS>
78-48-8

> <SMILES>
CCCCSP(=O)(SCCCC)SCCCC

> <NAME>
DEF

> <preferred_name>
Tribufos

> <iupac>
S,S,S-tributyl phosphorotrithioate

> <MPID>
100142

> <dsstox_substance_id>
DTXSID1024174

> <Canonical_QSARr>
CCCCSP(=O)(SCCCC)SCCCC

> <InChI_Code_QSARr>
InChI=1S/C12H27OPS3/c1-4-7-10-15-14(13,16-11-8-5-2)17-12-9-6-3/h4-12H2,1-3H3

> <InChI Key_QSARr>
ZOKXUAHZSKEQSS-UHFFFAOYSA-N

> <Salt_Solvent>
?

> <Ready_Biodeg>
1.0

$$$$
100135
  -INDIGO-08031722522D

 24 23  0  0  0  0  0  0  0  0999 V2000
    1.3857   -0.8000    0.0000 C   0  0  0  0  0  0  0  0  0  0  0  0
    0.0000   -0.0000    0.0000 C   0  0  0  0  0  0  0  0  0  0  0  0
    0.8000    1.3857    0.0000 C   0  0  0  0  0  0  0  0  0  0  0  0
    1.6000    2.7713    0.0000 H   0  0  0  0  0  0  0  0  0  0  0  0
    2.3999    1.3857    0.0000 H   0  0  0  0  0  0  0  0  0  0  0  0
    0.0000    2.7713    0.0000 H   0  0  0  0  0  0  0  0  0  0  0  0
   -0.8001   -1.3857    0.0000 C   0  0  0  0  0  0  0  0  0  0  0  0
   -1.6000   -2.7713    0.0000 H   0  0  0  0  0  0  0  0  0  0  0  0
    0.0000   -2.7713    0.0000 H   0  0  0  0  0  0  0  0  0  0  0  0
   -2.4000   -1.3857    0.0000 H   0  0  0  0  0  0  0  0  0  0  0  0
   -1.3856    0.8000    0.0000 N   0  0  0  0  0  0  0  0  0  0  0  0
   -2.7713   -0.0000    0.0000 N   0  0  0  0  0  0  0  0  0  0  0  0
   -4.1570    0.8000    0.0000 C   0  0  0  0  0  0  0  0  0  0  0  0
   -3.3569    2.1857    0.0000 C   0  0  0  0  0  0  0  0  0  0  0  0
   -2.5569    3.5713    0.0000 N   0  0  0  0  0  0  0  0  0  0  0  0
   -5.5426    1.6000    0.0000 C   0  0  0  0  0  0  0  0  0  0  0  0
   -6.9282    2.4000    0.0000 H   0  0  0  0  0  0  0  0  0  0  0  0
   -6.9282    0.8000    0.0000 H   0  0  0  0  0  0  0  0  0  0  0  0
   -5.5426    3.2000    0.0000 H   0  0  0  0  0  0  0  0  0  0  0  0
   -4.9569   -0.5857    0.0000 C   0  0  0  0  0  0  0  0  0  0  0  0
   -5.7569   -1.9713    0.0000 H   0  0  0  0  0  0  0  0  0  0  0  0
   -6.5569   -0.5857    0.0000 H   0  0  0  0  0  0  0  0  0  0  0  0
   -4.1570   -1.9713    0.0000 H   0  0  0  0  0  0  0  0  0  0  0  0
    2.7713   -1.6000    0.0000 N   0  0  0  0  0  0  0  0  0  0  0  0
  1  2  1  0  0  0  0
  2  3  1  0  0  0  0
  3  4  1  0  0  0  0
  3  5  1  0  0  0  0
  3  6  1  0  0  0  0
  2  7  1  0  0  0  0
  7  8  1  0  0  0  0
  7  9  1  0  0  0  0
  7 10  1  0  0  0  0
  2 11  1  0  0  0  0
 11 12  2  0  0  0  0
 12 13  1  0  0  0  0
 13 14  1  0  0  0  0
 14 15  3  0  0  0  0
 13 16  1  0  0  0  0
 16 17  1  0  0  0  0
 16 18  1  0  0  0  0
 16 19  1  0  0  0  0
 13 20  1  0  0  0  0
 20 21  1  0  0  0  0
 20 22  1  0  0  0  0
 20 23  1  0  0  0  0
  1 24  3  0  0  0  0
M  END
> <ChemID>
100135

> <source_casrn>
78-67-1

> <CAS>
78-67-1

> <SMILES>
N#CC(N=NC(C#N)(C)C)(C)C

> <NAME>
Propanenitrile, 2,2'-azobis 2-methyl-

> <preferred_name>
2,2'-Azobis(2-methylpropanenitrile)

> <iupac>
2,2'-(E)-diazene-1,2-diylbis(2-methylpropanenitrile)

> <MPID>
100146

> <dsstox_substance_id>
DTXSID1026457

> <Canonical_QSARr>
CC(C)(C#N)N=NC(C)(C)C#N

> <InChI_Code_QSARr>
InChI=1S/C8H12N4/c1-7(2,5-9)11-12-8(3,4)6-10/h1-4H3/b12-11+

> <InChI Key_QSARr>
OZAIFHULBGXAKX-VAWYXSNFSA-N

> <Salt_Solvent>
?

> <Ready_Biodeg>
0.0

$$$$
100139
  -INDIGO-08031722522D

 15 14  0  0  0  0  0  0  0  0999 V2000
    2.4000    1.3856    0.0000 O   0  0  0  0  0  0  0  0  0  0  0  0
    4.0000    1.3856    0.0000 H   0  0  0  0  0  0  0  0  0  0  0  0
    1.6000    0.0000    0.0000 C   0  0  0  0  0  0  0  0  0  0  0  0
    1.8089   -1.5863    0.0000 H   0  0  0  0  0  0  0  0  0  0  0  0
    2.8694   -0.9740    0.0000 H   0  0  0  0  0  0  0  0  0  0  0  0
    0.0000    0.0000    0.0000 C   0  0  0  0  0  0  0  0  0  0  0  0
    0.0000   -1.6000    0.0000 H   0  0  0  0  0  0  0  0  0  0  0  0
   -1.6000    0.0000    0.0000 C   0  0  0  0  0  0  0  0  0  0  0  0
   -3.2000    0.0000    0.0000 H   0  0  0  0  0  0  0  0  0  0  0  0
   -2.4000   -1.3856    0.0000 H   0  0  0  0  0  0  0  0  0  0  0  0
   -2.4000    1.3856    0.0000 H   0  0  0  0  0  0  0  0  0  0  0  0
    0.0000    1.6000    0.0000 C   0  0  0  0  0  0  0  0  0  0  0  0
    0.0000    3.2000    0.0000 H   0  0  0  0  0  0  0  0  0  0  0  0
    1.3857    2.4000    0.0000 H   0  0  0  0  0  0  0  0  0  0  0  0
   -1.3857    2.4000    0.0000 H   0  0  0  0  0  0  0  0  0  0  0  0
  1  2  1  0  0  0  0
  1  3  1  0  0  0  0
  3  4  1  0  0  0  0
  3  5  1  0  0  0  0
  3  6  1  0  0  0  0
  6  7  1  0  0  0  0
  6  8  1  0  0  0  0
  8  9  1  0  0  0  0
  8 10  1  0  0  0  0
  8 11  1  0  0  0  0
  6 12  1  0  0  0  0
 12 13  1  0  0  0  0
 12 14  1  0  0  0  0
 12 15  1  0  0  0  0
M  END
> <ChemID>
100139

> <source_casrn>
78-83-1

> <CAS>
78-83-1

> <SMILES>
CC(C)CO

> <NAME>
1-Propanol, 2-methyl-

> <preferred_name>
2-Methyl-1-propanol

> <iupac>
2-methylpropan-1-ol

> <MPID>
100150

> <dsstox_substance_id>
DTXSID0021759

> <Canonical_QSARr>
CC(C)CO

> <InChI_Code_QSARr>
InChI=1S/C4H10O/c1-4(2)3-5/h4-5H,3H2,1-2H3

> <InChI Key_QSARr>
ZXEKIIBDNHEJCQ-UHFFFAOYSA-N

> <Salt_Solvent>
?

> <Ready_Biodeg>
1.0

$$$$
100143
  -INDIGO-08031722522D

 13 12  0  0  0  0  0  0  0  0999 V2000
    2.7713    0.0000    0.0000 C   0  0  0  0  0  0  0  0  0  0  0  0
    4.1569   -0.8000    0.0000 H   0  0  0  0  0  0  0  0  0  0  0  0
    4.1569    0.8000    0.0000 H   0  0  0  0  0  0  0  0  0  0  0  0
    2.7713   -1.6000    0.0000 H   0  0  0  0  0  0  0  0  0  0  0  0
    1.3856    0.8000    0.0000 C   0  0  0  0  0  0  0  0  0  0  0  0
    0.0000    0.0000    0.0000 C   0  0  0  0  0  0  0  0  0  0  0  0
    0.6123   -1.4782    0.0000 H   0  0  0  0  0  0  0  0  0  0  0  0
   -0.6123   -1.4782    0.0000 H   0  0  0  0  0  0  0  0  0  0  0  0
   -1.3856    0.8000    0.0000 C   0  0  0  0  0  0  0  0  0  0  0  0
   -2.7713    1.6000    0.0000 H   0  0  0  0  0  0  0  0  0  0  0  0
   -2.7713    0.0000    0.0000 H   0  0  0  0  0  0  0  0  0  0  0  0
   -1.3856    2.4000    0.0000 H   0  0  0  0  0  0  0  0  0  0  0  0
    1.3856    2.4000    0.0000 O   0  0  0  0  0  0  0  0  0  0  0  0
  1  2  1  0  0  0  0
  1  3  1  0  0  0  0
  1  4  1  0  0  0  0
  1  5  1  0  0  0  0
  5  6  1  0  0  0  0
  6  7  1  0  0  0  0
  6  8  1  0  0  0  0
  6  9  1  0  0  0  0
  9 10  1  0  0  0  0
  9 11  1  0  0  0  0
  9 12  1  0  0  0  0
  5 13  2  0  0  0  0
M  END
> <ChemID>
100143

> <source_casrn>
78-93-3

> <CAS>
78-93-3

> <SMILES>
CCC(C)=O

> <NAME>
2-Butanone

> <preferred_name>
Methyl ethyl ketone

> <iupac>
butan-2-one

> <MPID>
100154

> <dsstox_substance_id>
DTXSID3021516

> <Canonical_QSARr>
CCC(C)=O

> <InChI_Code_QSARr>
InChI=1S/C4H8O/c1-3-4(2)5/h3H2,1-2H3

> <InChI Key_QSARr>
ZWEHNKRNPOVVGH-UHFFFAOYSA-N

> <Salt_Solvent>
?

> <Ready_Biodeg>
1.0

$$$$
100147
  -INDIGO-08031722522D

 10  9  0  0  0  0  0  0  0  0999 V2000
    1.3856   -0.8000    0.0000 N   0  0  0  0  0  0  0  0  0  0  0  0
    2.7713    0.0000    0.0000 H   0  0  0  0  0  0  0  0  0  0  0  0
    1.3856   -2.4000    0.0000 H   0  0  0  0  0  0  0  0  0  0  0  0
    0.0000    0.0000    0.0000 C   0  0  0  0  0  0  0  0  0  0  0  0
    0.0000    1.6000    0.0000 O   0  0  0  0  0  0  0  0  0  0  0  0
   -1.3856   -0.8000    0.0000 C   0  0  0  0  0  0  0  0  0  0  0  0
   -1.3856   -2.4000    0.0000 H   0  0  0  0  0  0  0  0  0  0  0  0
   -2.7713    0.0000    0.0000 C   0  0  0  0  0  0  0  0  0  0  0  0
   -4.1569   -0.8000    0.0000 H   0  0  0  0  0  0  0  0  0  0  0  0
   -2.7713    1.6000    0.0000 H   0  0  0  0  0  0  0  0  0  0  0  0
  1  2  1  0  0  0  0
  1  3  1  0  0  0  0
  1  4  1  0  0  0  0
  4  5  2  0  0  0  0
  4  6  1  0  0  0  0
  6  7  1  0  0  0  0
  6  8  2  0  0  0  0
  8  9  1  0  0  0  0
  8 10  1  0  0  0  0
M  END
> <ChemID>
100147

> <source_casrn>
79-06-1

> <CAS>
79-06-1

> <SMILES>
C=CC(N)=O

> <NAME>
Acrylamide

> <preferred_name>
Acrylamide

> <iupac>
prop-2-enamide

> <MPID>
100158

> <dsstox_substance_id>
DTXSID5020027

> <Canonical_QSARr>
C=CC(N)=O

> <InChI_Code_QSARr>
InChI=1S/C3H5NO/c1-2-3(4)5/h2H,1H2,(H2,4,5)

> <InChI Key_QSARr>
HRPVXLWXLXDGHG-UHFFFAOYSA-N

> <Salt_Solvent>
?

> <Ready_Biodeg>
1.0

$$$$
100151
  -INDIGO-08031722522D

  9  8  0  0  0  0  0  0  0  0999 V2000
    1.6000    0.0000    0.0000 C   0  0  0  0  0  0  0  0  0  0  0  0
    2.4000    1.3856    0.0000 O   0  0  0  0  0  0  0  0  0  0  0  0
    2.4000   -1.3856    0.0000 O   0  0  0  0  0  0  0  0  0  0  0  0
    4.0000   -1.3856    0.0000 H   0  0  0  0  0  0  0  0  0  0  0  0
    0.0000    0.0000    0.0000 C   0  0  0  0  0  0  0  0  0  0  0  0
   -0.2089   -1.5863    0.0000 H   0  0  0  0  0  0  0  0  0  0  0  0
   -1.2693   -0.9740    0.0000 H   0  0  0  0  0  0  0  0  0  0  0  0
   -0.8000    1.3856    0.0000 O   0  0  0  0  0  0  0  0  0  0  0  0
   -2.4000    1.3856    0.0000 H   0  0  0  0  0  0  0  0  0  0  0  0
  1  2  2  0  0  0  0
  1  3  1  0  0  0  0
  3  4  1  0  0  0  0
  1  5  1  0  0  0  0
  5  6  1  0  0  0  0
  5  7  1  0  0  0  0
  5  8  1  0  0  0  0
  8  9  1  0  0  0  0
M  END
> <ChemID>
100151

> <source_casrn>
79-14-1

> <CAS>
79-14-1

> <SMILES>
OCC(O)=O

> <NAME>
HYDROXYACETIC ACID

> <preferred_name>
Glycolic acid

> <iupac>
hydroxyacetic acid

> <MPID>
100162

> <dsstox_substance_id>
DTXSID0025363

> <Canonical_QSARr>
OCC(O)=O

> <InChI_Code_QSARr>
InChI=1S/C2H4O3/c3-1-2(4)5/h3H,1H2,(H,4,5)

> <InChI Key_QSARr>
AEMRFAOFKBGASW-UHFFFAOYSA-N

> <Salt_Solvent>
?

> <Ready_Biodeg>
1.0

$$$$
100155
  -INDIGO-08031722522D

 14 13  0  0  0  0  0  0  0  0999 V2000
    1.3856   -0.8000    0.0000 C   0  0  0  0  0  0  0  0  0  0  0  0
    2.7713   -1.6000    0.0000 H   0  0  0  0  0  0  0  0  0  0  0  0
    1.3856   -2.4000    0.0000 H   0  0  0  0  0  0  0  0  0  0  0  0
    2.7713    0.0000    0.0000 H   0  0  0  0  0  0  0  0  0  0  0  0
    0.0000    0.0000    0.0000 C   0  0  0  0  0  0  0  0  0  0  0  0
   -0.8000   -1.3856    0.0000 H   0  0  0  0  0  0  0  0  0  0  0  0
   -1.3857    0.8000    0.0000 C   0  0  0  0  0  0  0  0  0  0  0  0
   -2.7713    1.6000    0.0000 H   0  0  0  0  0  0  0  0  0  0  0  0
   -2.7713    0.0000    0.0000 H   0  0  0  0  0  0  0  0  0  0  0  0
   -1.3857    2.4000    0.0000 H   0  0  0  0  0  0  0  0  0  0  0  0
    0.8000    1.3856    0.0000 C   0  0  0  0  0  0  0  0  0  0  0  0
    2.4000    1.3856    0.0000 O   0  0  0  0  0  0  0  0  0  0  0  0
    3.2000    2.7713    0.0000 H   0  0  0  0  0  0  0  0  0  0  0  0
    0.0000    2.7713    0.0000 O   0  0  0  0  0  0  0  0  0  0  0  0
  1  2  1  0  0  0  0
  1  3  1  0  0  0  0
  1  4  1  0  0  0  0
  1  5  1  0  0  0  0
  5  6  1  0  0  0  0
  5  7  1  0  0  0  0
  7  8  1  0  0  0  0
  7  9  1  0  0  0  0
  7 10  1  0  0  0  0
  5 11  1  0  0  0  0
 11 12  1  0  0  0  0
 12 13  1  0  0  0  0
 11 14  2  0  0  0  0
M  END
> <ChemID>
100155

> <source_casrn>
79-31-2

> <CAS>
79-31-2

> <SMILES>
CC(C)C(O)=O

> <NAME>
Isobutyric acid

> <preferred_name>
2-Methylpropanoic acid

> <iupac>
2-methylpropanoic acid

> <MPID>
100166

> <dsstox_substance_id>
DTXSID4021636

> <Canonical_QSARr>
CC(C)C(O)=O

> <InChI_Code_QSARr>
InChI=1S/C4H8O2/c1-3(2)4(5)6/h3H,1-2H3,(H,5,6)

> <InChI Key_QSARr>
KQNPFQTWMSNSAP-UHFFFAOYSA-N

> <Salt_Solvent>
?

> <Ready_Biodeg>
1.0

$$$$
100159
  -INDIGO-08031722522D

 26 27  0  0  0  0  0  0  0  0999 V2000
    1.1108   -2.3805    0.0000 C   0  0  0  0  0  0  0  0  0  0  0  0
    1.9794   -3.7242    0.0000 H   0  0  0  0  0  0  0  0  0  0  0  0
   -0.2412   -3.2361    0.0000 H   0  0  0  0  0  0  0  0  0  0  0  0
    2.4829   -1.4746    0.0000 C   0  0  0  0  0  0  0  0  0  0  0  0
    3.3282   -2.8330    0.0000 H   0  0  0  0  0  0  0  0  0  0  0  0
    3.8635   -0.6660    0.0000 H   0  0  0  0  0  0  0  0  0  0  0  0
    1.7072   -0.0645    0.0000 C   0  0  0  0  0  0  0  0  0  0  0  0
    3.2968    0.1174    0.0000 H   0  0  0  0  0  0  0  0  0  0  0  0
    2.1205    1.3999    0.0000 C   0  0  0  0  0  0  0  0  0  0  0  0
    3.7053    1.6190    0.0000 H   0  0  0  0  0  0  0  0  0  0  0  0
    1.9184    2.3156    0.0000 H   0  0  0  0  0  0  0  0  0  0  0  0
    0.3466   -1.1466    0.0000 C   0  0  0  0  0  0  0  0  0  0  0  0
   -0.5484   -2.4729    0.0000 H   0  0  0  0  0  0  0  0  0  0  0  0
   -1.2301   -0.8745    0.0000 C   0  0  0  0  0  0  0  0  0  0  0  0
   -0.0000    0.0000    0.0000 C   0  0  0  0  0  0  0  0  0  0  0  0
    0.5378    1.5069    0.0000 C   0  0  0  0  0  0  0  0  0  0  0  0
   -0.4984    2.7261    0.0000 H   0  0  0  0  0  0  0  0  0  0  0  0
    0.8057    3.0843    0.0000 H   0  0  0  0  0  0  0  0  0  0  0  0
    1.0862    2.2675    0.0000 H   0  0  0  0  0  0  0  0  0  0  0  0
   -1.2758    0.9655    0.0000 C   0  0  0  0  0  0  0  0  0  0  0  0
   -2.5517    1.9310    0.0000 H   0  0  0  0  0  0  0  0  0  0  0  0
   -2.7499    0.3434    0.0000 H   0  0  0  0  0  0  0  0  0  0  0  0
   -1.3564    2.5635    0.0000 H   0  0  0  0  0  0  0  0  0  0  0  0
   -2.7904   -1.2291    0.0000 C   0  0  0  0  0  0  0  0  0  0  0  0
   -3.2634   -2.7576    0.0000 H   0  0  0  0  0  0  0  0  0  0  0  0
   -3.8776   -0.0553    0.0000 H   0  0  0  0  0  0  0  0  0  0  0  0
  1  2  1  0  0  0  0
  1  3  1  0  0  0  0
  1  4  1  0  0  0  0
  4  5  1  0  0  0  0
  4  6  1  0  0  0  0
  4  7  1  0  0  0  0
  7  8  1  0  0  0  0
  7  9  1  0  0  0  0
  9 10  1  0  0  0  0
  9 11  1  0  0  0  0
  9 12  1  0  0  0  0
 12  1  1  0  0  0  0
 12 13  1  0  0  0  0
 12 14  1  0  0  0  0
 14 15  1  0  0  0  0
 15  7  1  0  0  0  0
 15 16  1  0  0  0  0
 16 17  1  0  0  0  0
 16 18  1  0  0  0  0
 16 19  1  0  0  0  0
 15 20  1  0  0  0  0
 20 21  1  0  0  0  0
 20 22  1  0  0  0  0
 20 23  1  0  0  0  0
 14 24  2  0  0  0  0
 24 25  1  0  0  0  0
 24 26  1  0  0  0  0
M  END
> <ChemID>
100159

> <source_casrn>
79-92-5|5794-04-7

> <CAS>
79-92-5|5794-04-7

> <SMILES>
C(C(CC1C2)C2)(C1(C)C)=C

> <NAME>
Bicyclo 2.2.1 heptane, 2,2-dimethyl-3-methylene-, Bicyclo 2.2.1 heptane, 2,2-dimethyl-3-methylene-, (1S)-

> <preferred_name>
Camphene

> <iupac>
C10H16

> <MPID>
100170|101090

> <dsstox_substance_id>
DTXSID8026488|DTXSID3046538

> <Canonical_QSARr>
CC1(C)C2CC(CC2)C1=C

> <InChI_Code_QSARr>
InChI=1S/C10H16/c1-7-8-4-5-9(6-8)10(7,2)3/h8-9H,1,4-6H2,2-3H3

> <InChI Key_QSARr>
CRPUJAZIXJMDBK-UHFFFAOYSA-N

> <Salt_Solvent>
?

> <Ready_Biodeg>
0.0

$$$$
100163
  -INDIGO-08031722522D

 42 43  0  0  0  0  0  0  0  0999 V2000
    1.5035   -0.5472    0.0000 O   0  0  0  0  0  0  0  0  0  0  0  0
    2.7293    0.4812    0.0000 O   0  0  0  0  0  0  0  0  0  0  0  0
    4.2327   -0.0661    0.0000 C   0  0  0  0  0  0  0  0  0  0  0  0
    5.7363   -0.6132    0.0000 C   0  0  0  0  0  0  0  0  0  0  0  0
    6.2834   -2.1167    0.0000 C   0  0  0  0  0  0  0  0  0  0  0  0
    5.4834   -3.5023    0.0000 H   0  0  0  0  0  0  0  0  0  0  0  0
    7.8592   -2.3946    0.0000 C   0  0  0  0  0  0  0  0  0  0  0  0
    8.4063   -3.8981    0.0000 H   0  0  0  0  0  0  0  0  0  0  0  0
    8.8877   -1.1690    0.0000 C   0  0  0  0  0  0  0  0  0  0  0  0
   10.4633   -1.4467    0.0000 H   0  0  0  0  0  0  0  0  0  0  0  0
    8.3404    0.3346    0.0000 C   0  0  0  0  0  0  0  0  0  0  0  0
    9.3689    1.5602    0.0000 H   0  0  0  0  0  0  0  0  0  0  0  0
    6.7645    0.6125    0.0000 C   0  0  0  0  0  0  0  0  0  0  0  0
    6.2175    2.1160    0.0000 H   0  0  0  0  0  0  0  0  0  0  0  0
    3.6853   -1.5695    0.0000 C   0  0  0  0  0  0  0  0  0  0  0  0
    3.1383   -3.0730    0.0000 H   0  0  0  0  0  0  0  0  0  0  0  0
    4.7138   -2.7952    0.0000 H   0  0  0  0  0  0  0  0  0  0  0  0
    2.1098   -1.8473    0.0000 H   0  0  0  0  0  0  0  0  0  0  0  0
    4.7800    1.4375    0.0000 C   0  0  0  0  0  0  0  0  0  0  0  0
    3.7515    2.6631    0.0000 H   0  0  0  0  0  0  0  0  0  0  0  0
    5.3271    2.9410    0.0000 H   0  0  0  0  0  0  0  0  0  0  0  0
    3.1799    1.4375    0.0000 H   0  0  0  0  0  0  0  0  0  0  0  0
   -0.0001   -0.0000    0.0000 C   0  0  0  0  0  0  0  0  0  0  0  0
   -0.7999   -1.3856    0.0000 C   0  0  0  0  0  0  0  0  0  0  0  0
   -0.0001   -2.7712    0.0000 C   0  0  0  0  0  0  0  0  0  0  0  0
    1.5999   -2.7712    0.0000 H   0  0  0  0  0  0  0  0  0  0  0  0
   -0.7999   -4.1570    0.0000 C   0  0  0  0  0  0  0  0  0  0  0  0
   -0.0001   -5.5426    0.0000 H   0  0  0  0  0  0  0  0  0  0  0  0
   -2.3999   -4.1570    0.0000 C   0  0  0  0  0  0  0  0  0  0  0  0
   -3.2000   -5.5426    0.0000 H   0  0  0  0  0  0  0  0  0  0  0  0
   -3.2000   -2.7712    0.0000 C   0  0  0  0  0  0  0  0  0  0  0  0
   -4.8000   -2.7712    0.0000 H   0  0  0  0  0  0  0  0  0  0  0  0
   -2.3999   -1.3856    0.0000 C   0  0  0  0  0  0  0  0  0  0  0  0
   -3.2000   -0.0000    0.0000 H   0  0  0  0  0  0  0  0  0  0  0  0
    0.5472    1.5035    0.0000 C   0  0  0  0  0  0  0  0  0  0  0  0
    1.0945    3.0070    0.0000 H   0  0  0  0  0  0  0  0  0  0  0  0
    2.1230    1.7814    0.0000 H   0  0  0  0  0  0  0  0  0  0  0  0
   -0.2528    2.8892    0.0000 H   0  0  0  0  0  0  0  0  0  0  0  0
   -1.5035    0.5472    0.0000 C   0  0  0  0  0  0  0  0  0  0  0  0
   -3.0071    1.0945    0.0000 H   0  0  0  0  0  0  0  0  0  0  0  0
   -1.7813    2.1229    0.0000 H   0  0  0  0  0  0  0  0  0  0  0  0
   -0.4750    1.7729    0.0000 H   0  0  0  0  0  0  0  0  0  0  0  0
  1  2  1  0  0  0  0
  2  3  1  0  0  0  0
  3  4  1  0  0  0  0
  4  5  1  0  0  0  0
  5  6  1  0  0  0  0
  5  7  2  0  0  0  0
  7  8  1  0  0  0  0
  7  9  1  0  0  0  0
  9 10  1  0  0  0  0
  9 11  2  0  0  0  0
 11 12  1  0  0  0  0
 11 13  1  0  0  0  0
 13  4  2  0  0  0  0
 13 14  1  0  0  0  0
  3 15  1  0  0  0  0
 15 16  1  0  0  0  0
 15 17  1  0  0  0  0
 15 18  1  0  0  0  0
  3 19  1  0  0  0  0
 19 20  1  0  0  0  0
 19 21  1  0  0  0  0
 19 22  1  0  0  0  0
  1 23  1  0  0  0  0
 23 24  1  0  0  0  0
 24 25  1  0  0  0  0
 25 26  1  0  0  0  0
 25 27  2  0  0  0  0
 27 28  1  0  0  0  0
 27 29  1  0  0  0  0
 29 30  1  0  0  0  0
 29 31  2  0  0  0  0
 31 32  1  0  0  0  0
 31 33  1  0  0  0  0
 33 24  2  0  0  0  0
 33 34  1  0  0  0  0
 23 35  1  0  0  0  0
 35 36  1  0  0  0  0
 35 37  1  0  0  0  0
 35 38  1  0  0  0  0
 23 39  1  0  0  0  0
 39 40  1  0  0  0  0
 39 41  1  0  0  0  0
 39 42  1  0  0  0  0
M  END
> <ChemID>
100163

> <source_casrn>
80-43-3

> <CAS>
80-43-3

> <SMILES>
CC(C)(OOC(C)(C)c1ccccc1)c1ccccc1

> <NAME>
Peroxide, bis(1-methyl-1-phenylethyl)

> <preferred_name>
Dicumyl peroxide

> <iupac>
bis(2-phenylpropan-2-yl) peroxide

> <MPID>
100174

> <dsstox_substance_id>
DTXSID1025017

> <Canonical_QSARr>
CC(C)(OOC(C)(C)c1ccccc1)c1ccccc1

> <InChI_Code_QSARr>
InChI=1S/C18H22O2/c1-17(2,15-11-7-5-8-12-15)19-20-18(3,4)16-13-9-6-10-14-16/h5-14H,1-4H3

> <InChI Key_QSARr>
XMNIXWIUMCBBBL-UHFFFAOYSA-N

> <Salt_Solvent>
?

> <Ready_Biodeg>
0.0

$$$$
100167
  -INDIGO-08031722522D

 26 27  0  0  0  0  0  0  0  0999 V2000
   -3.2001    2.7713    0.0000 S   0  0  0  0  0  0  0  0  0  0  0  0
   -2.3999    1.3856    0.0000 C   0  0  0  0  0  0  0  0  0  0  0  0
   -0.8000    1.3856    0.0000 C   0  0  0  0  0  0  0  0  0  0  0  0
   -0.0000    2.7713    0.0000 C   0  0  0  0  0  0  0  0  0  0  0  0
   -0.8000    4.1569    0.0000 H   0  0  0  0  0  0  0  0  0  0  0  0
    1.5999    2.7713    0.0000 C   0  0  0  0  0  0  0  0  0  0  0  0
    2.4001    4.1569    0.0000 H   0  0  0  0  0  0  0  0  0  0  0  0
    2.4001    1.3856    0.0000 C   0  0  0  0  0  0  0  0  0  0  0  0
    4.0000    1.3856    0.0000 H   0  0  0  0  0  0  0  0  0  0  0  0
    1.5999    0.0000    0.0000 C   0  0  0  0  0  0  0  0  0  0  0  0
    2.4001   -1.3856    0.0000 S   0  0  0  0  0  0  0  0  0  0  0  0
    3.7856   -0.5857    0.0000 O   0  0  0  0  0  0  0  0  0  0  0  0
    1.0144   -2.1856    0.0000 O   0  0  0  0  0  0  0  0  0  0  0  0
    3.2000   -2.7713    0.0000 O   0  0  0  0  0  0  0  0  0  0  0  0
    4.8000   -2.7713    0.0000 H   0  0  0  0  0  0  0  0  0  0  0  0
   -0.0000    0.0000    0.0000 C   0  0  0  0  0  0  0  0  0  0  0  0
   -0.8000   -1.3856    0.0000 C   0  0  0  0  0  0  0  0  0  0  0  0
   -0.0000   -2.7713    0.0000 H   0  0  0  0  0  0  0  0  0  0  0  0
   -2.3999   -1.3856    0.0000 C   0  0  0  0  0  0  0  0  0  0  0  0
   -3.2001   -2.7713    0.0000 H   0  0  0  0  0  0  0  0  0  0  0  0
   -3.2001    0.0000    0.0000 C   0  0  0  0  0  0  0  0  0  0  0  0
   -4.8000    0.0000    0.0000 H   0  0  0  0  0  0  0  0  0  0  0  0
   -4.5856    1.9713    0.0000 O   0  0  0  0  0  0  0  0  0  0  0  0
   -1.8144    3.5712    0.0000 O   0  0  0  0  0  0  0  0  0  0  0  0
   -4.0000    4.1569    0.0000 O   0  0  0  0  0  0  0  0  0  0  0  0
   -5.6000    4.1569    0.0000 H   0  0  0  0  0  0  0  0  0  0  0  0
  1  2  1  0  0  0  0
  2  3  1  0  0  0  0
  3  4  1  0  0  0  0
  4  5  1  0  0  0  0
  4  6  2  0  0  0  0
  6  7  1  0  0  0  0
  6  8  1  0  0  0  0
  8  9  1  0  0  0  0
  8 10  2  0  0  0  0
 10 11  1  0  0  0  0
 11 12  2  0  0  0  0
 11 13  2  0  0  0  0
 11 14  1  0  0  0  0
 14 15  1  0  0  0  0
 10 16  1  0  0  0  0
 16  3  2  0  0  0  0
 16 17  1  0  0  0  0
 17 18  1  0  0  0  0
 17 19  2  0  0  0  0
 19 20  1  0  0  0  0
 19 21  1  0  0  0  0
 21  2  2  0  0  0  0
 21 22  1  0  0  0  0
  1 23  2  0  0  0  0
  1 24  2  0  0  0  0
  1 25  1  0  0  0  0
 25 26  1  0  0  0  0
M  END
> <ChemID>
100167

> <source_casrn>
81-04-9

> <CAS>
81-04-9

> <SMILES>
O=S(=O)(O)c(c(c(c(S(=O)(=O)O)cc1)cc2)c1)c2

> <NAME>
1,5-Naphthalene disulfonic acid

> <preferred_name>
1,5-Naphthalenedisulfonic acid

> <iupac>
naphthalene-1,5-disulfonic acid

> <MPID>
100178

> <dsstox_substance_id>
DTXSID5046982

> <Canonical_QSARr>
OS(=O)(=O)c1cccc2c(cccc21)S(O)(=O)=O

> <InChI_Code_QSARr>
InChI=1S/C10H8O6S2/c11-17(12,13)9-5-1-3-7-8(9)4-2-6-10(7)18(14,15)16/h1-6H,(H,11,12,13)(H,14,15,16)

> <InChI Key_QSARr>
XTEGVFVZDVNBPF-UHFFFAOYSA-N

> <Salt_Solvent>
?

> <Ready_Biodeg>
1.0

$$$$
100171
  -INDIGO-08031722522D

 28 31  0  0  0  0  0  0  0  0999 V2000
   -2.4001    1.3856    0.0000 C   0  0  0  0  0  0  0  0  0  0  0  0
   -3.2001    2.7713    0.0000 C   0  0  0  0  0  0  0  0  0  0  0  0
   -2.4001    4.1569    0.0000 H   0  0  0  0  0  0  0  0  0  0  0  0
   -4.8000    2.7712    0.0000 C   0  0  0  0  0  0  0  0  0  0  0  0
   -5.6000    4.1569    0.0000 H   0  0  0  0  0  0  0  0  0  0  0  0
   -5.6000    1.3856    0.0000 C   0  0  0  0  0  0  0  0  0  0  0  0
   -7.2000    1.3856    0.0000 H   0  0  0  0  0  0  0  0  0  0  0  0
   -4.8000    0.0001    0.0000 C   0  0  0  0  0  0  0  0  0  0  0  0
   -5.6000   -1.3856    0.0000 H   0  0  0  0  0  0  0  0  0  0  0  0
   -3.2001    0.0001    0.0000 C   0  0  0  0  0  0  0  0  0  0  0  0
   -2.4001   -1.3856    0.0000 C   0  0  0  0  0  0  0  0  0  0  0  0
   -3.2001   -2.7712    0.0000 O   0  0  0  0  0  0  0  0  0  0  0  0
   -0.7999   -1.3856    0.0000 C   0  0  0  0  0  0  0  0  0  0  0  0
    0.0001    0.0001    0.0000 C   0  0  0  0  0  0  0  0  0  0  0  0
    1.6000    0.0001    0.0000 C   0  0  0  0  0  0  0  0  0  0  0  0
    2.4000    1.3856    0.0000 C   0  0  0  0  0  0  0  0  0  0  0  0
    4.0000    1.3856    0.0000 H   0  0  0  0  0  0  0  0  0  0  0  0
    1.6000    2.7712    0.0000 C   0  0  0  0  0  0  0  0  0  0  0  0
    2.4000    4.1569    0.0000 H   0  0  0  0  0  0  0  0  0  0  0  0
    0.0001    2.7713    0.0000 C   0  0  0  0  0  0  0  0  0  0  0  0
   -0.7999    4.1569    0.0000 H   0  0  0  0  0  0  0  0  0  0  0  0
   -0.7999    1.3856    0.0000 C   0  0  0  0  0  0  0  0  0  0  0  0
    2.4000   -1.3856    0.0000 C   0  0  0  0  0  0  0  0  0  0  0  0
    4.0000   -1.3856    0.0000 H   0  0  0  0  0  0  0  0  0  0  0  0
    1.6000   -2.7712    0.0000 C   0  0  0  0  0  0  0  0  0  0  0  0
    2.4000   -4.1569    0.0000 H   0  0  0  0  0  0  0  0  0  0  0  0
    0.0001   -2.7712    0.0000 C   0  0  0  0  0  0  0  0  0  0  0  0
   -0.7999   -4.1569    0.0000 H   0  0  0  0  0  0  0  0  0  0  0  0
  1  2  1  0  0  0  0
  2  3  1  0  0  0  0
  2  4  2  0  0  0  0
  4  5  1  0  0  0  0
  4  6  1  0  0  0  0
  6  7  1  0  0  0  0
  6  8  2  0  0  0  0
  8  9  1  0  0  0  0
  8 10  1  0  0  0  0
 10  1  2  0  0  0  0
 10 11  1  0  0  0  0
 11 12  2  0  0  0  0
 11 13  1  0  0  0  0
 13 14  1  0  0  0  0
 14 15  2  0  0  0  0
 15 16  1  0  0  0  0
 16 17  1  0  0  0  0
 16 18  2  0  0  0  0
 18 19  1  0  0  0  0
 18 20  1  0  0  0  0
 20 21  1  0  0  0  0
 20 22  2  0  0  0  0
 22  1  1  0  0  0  0
 22 14  1  0  0  0  0
 15 23  1  0  0  0  0
 23 24  1  0  0  0  0
 23 25  2  0  0  0  0
 25 26  1  0  0  0  0
 25 27  1  0  0  0  0
 27 13  2  0  0  0  0
 27 28  1  0  0  0  0
M  END
> <ChemID>
100171

> <source_casrn>
82-05-3

> <CAS>
82-05-3

> <SMILES>
O=C(c(c(c(c1c(ccc2)cc3)c3)ccc4)c4)c12

> <NAME>
7H-Benz de anthracen-7-one

> <preferred_name>
Benz[de]anthracen-7-one

> <iupac>
7H-benzo[de]anthracen-7-one

> <MPID>
100182

> <dsstox_substance_id>
DTXSID8052566

> <Canonical_QSARr>
O=C1c2cccc3cccc(c32)-c2ccccc21

> <InChI_Code_QSARr>
InChI=1S/C17H10O/c18-17-14-8-2-1-7-12(14)13-9-3-5-11-6-4-10-15(17)16(11)13/h1-10H

> <InChI Key_QSARr>
HUKPVYBUJRAUAG-UHFFFAOYSA-N

> <Salt_Solvent>
?

> <Ready_Biodeg>
0.0

$$$$
100175
  -INDIGO-08031722522D

 14 14  0  0  0  0  0  0  0  0999 V2000
    0.0000    2.7713    0.0000 Cl  0  0  0  0  0  0  0  0  0  0  0  0
   -0.8000    1.3856    0.0000 C   0  0  0  0  0  0  0  0  0  0  0  0
    0.0000   -0.0000    0.0000 C   0  0  0  0  0  0  0  0  0  0  0  0
    1.6000   -0.0000    0.0000 N   0  0  0  0  0  0  0  0  0  0  0  0
    2.4000    1.3856    0.0000 O   0  0  0  0  0  0  0  0  0  0  0  0
    2.4000   -1.3856    0.0000 O   0  0  0  0  0  0  0  0  0  0  0  0
   -0.8000   -1.3856    0.0000 C   0  0  0  0  0  0  0  0  0  0  0  0
    0.0000   -2.7713    0.0000 Cl  0  0  0  0  0  0  0  0  0  0  0  0
   -2.4000   -1.3856    0.0000 C   0  0  0  0  0  0  0  0  0  0  0  0
   -3.2000   -2.7713    0.0000 Cl  0  0  0  0  0  0  0  0  0  0  0  0
   -3.2000   -0.0000    0.0000 C   0  0  0  0  0  0  0  0  0  0  0  0
   -4.8000   -0.0000    0.0000 Cl  0  0  0  0  0  0  0  0  0  0  0  0
   -2.4000    1.3856    0.0000 C   0  0  0  0  0  0  0  0  0  0  0  0
   -3.2000    2.7713    0.0000 Cl  0  0  0  0  0  0  0  0  0  0  0  0
  1  2  1  0  0  0  0
  2  3  1  0  0  0  0
  3  4  1  0  0  0  0
  4  5  2  0  0  0  0
  4  6  1  0  0  0  0
  3  7  2  0  0  0  0
  7  8  1  0  0  0  0
  7  9  1  0  0  0  0
  9 10  1  0  0  0  0
  9 11  2  0  0  0  0
 11 12  1  0  0  0  0
 11 13  1  0  0  0  0
 13  2  2  0  0  0  0
 13 14  1  0  0  0  0
M  CHG  2   4   1   6  -1
M  END
> <ChemID>
100175

> <source_casrn>
82-68-8

> <CAS>
82-68-8

> <SMILES>
[O-][N+](=O)c1c(Cl)c(Cl)c(Cl)c(Cl)c1Cl

> <NAME>
Benzene, pentachloronitro-

> <preferred_name>
Pentachloronitrobenzene

> <iupac>
1,2,3,4,5-pentachloro-6-nitrobenzene

> <MPID>
100186

> <dsstox_substance_id>
DTXSID2021105

> <Canonical_QSARr>
[O-][N+](=O)c1c(Cl)c(Cl)c(Cl)c(Cl)c1Cl

> <InChI_Code_QSARr>
InChI=1S/C6Cl5NO2/c7-1-2(8)4(10)6(12(13)14)5(11)3(1)9

> <InChI Key_QSARr>
LKPLKUMXSAEKID-UHFFFAOYSA-N

> <Salt_Solvent>
?

> <Ready_Biodeg>
0.0

$$$$
100179
  -INDIGO-08031722522D

 19 19  0  0  0  0  0  0  0  0999 V2000
    2.4000   -1.3856    0.0000 C   0  0  0  0  0  0  0  0  0  0  0  0
    4.0000   -1.3856    0.0000 C   0  0  0  0  0  0  0  0  0  0  0  0
    4.8001    0.0000    0.0000 O   0  0  0  0  0  0  0  0  0  0  0  0
    4.8001   -2.7713    0.0000 O   0  0  0  0  0  0  0  0  0  0  0  0
    6.4000   -2.7713    0.0000 H   0  0  0  0  0  0  0  0  0  0  0  0
    1.6000    0.0000    0.0000 C   0  0  0  0  0  0  0  0  0  0  0  0
    2.4000    1.3856    0.0000 O   0  0  0  0  0  0  0  0  0  0  0  0
    4.0000    1.3856    0.0000 H   0  0  0  0  0  0  0  0  0  0  0  0
   -0.0000    0.0000    0.0000 C   0  0  0  0  0  0  0  0  0  0  0  0
   -0.8001    1.3856    0.0000 C   0  0  0  0  0  0  0  0  0  0  0  0
   -1.6000    2.7713    0.0000 H   0  0  0  0  0  0  0  0  0  0  0  0
   -2.4000    1.3856    0.0000 H   0  0  0  0  0  0  0  0  0  0  0  0
   -0.0000    2.7713    0.0000 H   0  0  0  0  0  0  0  0  0  0  0  0
   -0.8001   -1.3856    0.0000 C   0  0  0  0  0  0  0  0  0  0  0  0
   -2.4000   -1.3856    0.0000 H   0  0  0  0  0  0  0  0  0  0  0  0
   -0.0000   -2.7713    0.0000 C   0  0  0  0  0  0  0  0  0  0  0  0
   -0.8001   -4.1569    0.0000 H   0  0  0  0  0  0  0  0  0  0  0  0
    1.6000   -2.7713    0.0000 C   0  0  0  0  0  0  0  0  0  0  0  0
    2.4000   -4.1569    0.0000 H   0  0  0  0  0  0  0  0  0  0  0  0
  1  2  1  0  0  0  0
  2  3  2  0  0  0  0
  2  4  1  0  0  0  0
  4  5  1  0  0  0  0
  1  6  1  0  0  0  0
  6  7  1  0  0  0  0
  7  8  1  0  0  0  0
  6  9  2  0  0  0  0
  9 10  1  0  0  0  0
 10 11  1  0  0  0  0
 10 12  1  0  0  0  0
 10 13  1  0  0  0  0
  9 14  1  0  0  0  0
 14 15  1  0  0  0  0
 14 16  2  0  0  0  0
 16 17  1  0  0  0  0
 16 18  1  0  0  0  0
 18  1  2  0  0  0  0
 18 19  1  0  0  0  0
M  END
> <ChemID>
100179

> <source_casrn>
83-40-9

> <CAS>
83-40-9

> <SMILES>
Cc1cccc(C(O)=O)c1O

> <NAME>
3-Methylsalicylic acid

> <preferred_name>
2-Hydroxy-3-methylbenzoic acid

> <iupac>
2-hydroxy-3-methylbenzoic acid

> <MPID>
100190

> <dsstox_substance_id>
DTXSID9038686

> <Canonical_QSARr>
Cc1cccc(C(O)=O)c1O

> <InChI_Code_QSARr>
InChI=1S/C8H8O3/c1-5-3-2-4-6(7(5)9)8(10)11/h2-4,9H,1H3,(H,10,11)

> <InChI Key_QSARr>
WHSXTWFYRGOBGO-UHFFFAOYSA-N

> <Salt_Solvent>
?

> <Ready_Biodeg>
0.0

$$$$
100183
  -INDIGO-08031722522D

 30 30  0  0  0  0  0  0  0  0999 V2000
    4.7999    2.7712    0.0000 C   0  0  0  0  0  0  0  0  0  0  0  0
    6.4000    2.7712    0.0000 H   0  0  0  0  0  0  0  0  0  0  0  0
    5.6000    4.1569    0.0000 H   0  0  0  0  0  0  0  0  0  0  0  0
    5.6000    1.3856    0.0000 H   0  0  0  0  0  0  0  0  0  0  0  0
    3.2001    2.7712    0.0000 C   0  0  0  0  0  0  0  0  0  0  0  0
    2.9911    4.3576    0.0000 H   0  0  0  0  0  0  0  0  0  0  0  0
    1.9307    3.7453    0.0000 H   0  0  0  0  0  0  0  0  0  0  0  0
    2.4000    1.3856    0.0000 O   0  0  0  0  0  0  0  0  0  0  0  0
    0.8000    1.3856    0.0000 C   0  0  0  0  0  0  0  0  0  0  0  0
   -0.0001    2.7712    0.0000 O   0  0  0  0  0  0  0  0  0  0  0  0
   -0.0001   -0.0000    0.0000 C   0  0  0  0  0  0  0  0  0  0  0  0
    0.8000   -1.3857    0.0000 C   0  0  0  0  0  0  0  0  0  0  0  0
    2.4000   -1.3857    0.0000 H   0  0  0  0  0  0  0  0  0  0  0  0
   -0.0001   -2.7713    0.0000 C   0  0  0  0  0  0  0  0  0  0  0  0
    0.8000   -4.1569    0.0000 H   0  0  0  0  0  0  0  0  0  0  0  0
   -1.5999   -2.7713    0.0000 C   0  0  0  0  0  0  0  0  0  0  0  0
   -2.4000   -4.1569    0.0000 H   0  0  0  0  0  0  0  0  0  0  0  0
   -2.4000   -1.3857    0.0000 C   0  0  0  0  0  0  0  0  0  0  0  0
   -4.0000   -1.3857    0.0000 H   0  0  0  0  0  0  0  0  0  0  0  0
   -1.5999   -0.0000    0.0000 C   0  0  0  0  0  0  0  0  0  0  0  0
   -2.4000    1.3856    0.0000 C   0  0  0  0  0  0  0  0  0  0  0  0
   -1.5999    2.7712    0.0000 O   0  0  0  0  0  0  0  0  0  0  0  0
   -4.0000    1.3856    0.0000 O   0  0  0  0  0  0  0  0  0  0  0  0
   -4.8001    2.7712    0.0000 C   0  0  0  0  0  0  0  0  0  0  0  0
   -3.5307    3.7453    0.0000 H   0  0  0  0  0  0  0  0  0  0  0  0
   -4.5911    4.3576    0.0000 H   0  0  0  0  0  0  0  0  0  0  0  0
   -6.3999    2.7712    0.0000 C   0  0  0  0  0  0  0  0  0  0  0  0
   -8.0000    2.7712    0.0000 H   0  0  0  0  0  0  0  0  0  0  0  0
   -7.2000    4.1569    0.0000 H   0  0  0  0  0  0  0  0  0  0  0  0
   -7.2000    1.3856    0.0000 H   0  0  0  0  0  0  0  0  0  0  0  0
  1  2  1  0  0  0  0
  1  3  1  0  0  0  0
  1  4  1  0  0  0  0
  1  5  1  0  0  0  0
  5  6  1  0  0  0  0
  5  7  1  0  0  0  0
  5  8  1  0  0  0  0
  8  9  1  0  0  0  0
  9 10  2  0  0  0  0
  9 11  1  0  0  0  0
 11 12  1  0  0  0  0
 12 13  1  0  0  0  0
 12 14  2  0  0  0  0
 14 15  1  0  0  0  0
 14 16  1  0  0  0  0
 16 17  1  0  0  0  0
 16 18  2  0  0  0  0
 18 19  1  0  0  0  0
 18 20  1  0  0  0  0
 20 11  2  0  0  0  0
 20 21  1  0  0  0  0
 21 22  2  0  0  0  0
 21 23  1  0  0  0  0
 23 24  1  0  0  0  0
 24 25  1  0  0  0  0
 24 26  1  0  0  0  0
 24 27  1  0  0  0  0
 27 28  1  0  0  0  0
 27 29  1  0  0  0  0
 27 30  1  0  0  0  0
M  END
> <ChemID>
100183

> <source_casrn>
84-66-2

> <CAS>
84-66-2

> <SMILES>
CCOC(=O)c1ccccc1C(=O)OCC

> <NAME>
Diethyl phthalate

> <preferred_name>
Diethyl phthalate

> <iupac>
diethyl benzene-1,2-dicarboxylate

> <MPID>
100194

> <dsstox_substance_id>
DTXSID7021780

> <Canonical_QSARr>
CCOC(=O)c1ccccc1C(=O)OCC

> <InChI_Code_QSARr>
InChI=1S/C12H14O4/c1-3-15-11(13)9-7-5-6-8-10(9)12(14)16-4-2/h5-8H,3-4H2,1-2H3

> <InChI Key_QSARr>
FLKPEMZONWLCSK-UHFFFAOYSA-N

> <Salt_Solvent>
?

> <Ready_Biodeg>
0.0

$$$$
100188
  -INDIGO-08031722522D

 18 18  0  0  0  0  0  0  0  0999 V2000
    0.8001   -1.3856    0.0000 C   0  0  0  0  0  0  0  0  0  0  0  0
    2.4000   -1.3856    0.0000 H   0  0  0  0  0  0  0  0  0  0  0  0
    1.6000   -2.7713    0.0000 H   0  0  0  0  0  0  0  0  0  0  0  0
    1.6000   -0.0000    0.0000 H   0  0  0  0  0  0  0  0  0  0  0  0
    0.0000   -0.0000    0.0000 C   0  0  0  0  0  0  0  0  0  0  0  0
    0.2088    1.5863    0.0000 H   0  0  0  0  0  0  0  0  0  0  0  0
    1.2694    0.9740    0.0000 H   0  0  0  0  0  0  0  0  0  0  0  0
   -1.6000    0.0000    0.0000 C   0  0  0  0  0  0  0  0  0  0  0  0
   -2.4000    1.3856    0.0000 C   0  0  0  0  0  0  0  0  0  0  0  0
   -1.6000    2.7713    0.0000 Br  0  0  0  0  0  0  0  0  0  0  0  0
   -4.0000    1.3856    0.0000 C   0  0  0  0  0  0  0  0  0  0  0  0
   -4.8001    2.7713    0.0000 Br  0  0  0  0  0  0  0  0  0  0  0  0
   -4.8001    0.0000    0.0000 C   0  0  0  0  0  0  0  0  0  0  0  0
   -6.4000    0.0000    0.0000 Br  0  0  0  0  0  0  0  0  0  0  0  0
   -4.0000   -1.3856    0.0000 C   0  0  0  0  0  0  0  0  0  0  0  0
   -4.8001   -2.7713    0.0000 Br  0  0  0  0  0  0  0  0  0  0  0  0
   -2.4000   -1.3856    0.0000 C   0  0  0  0  0  0  0  0  0  0  0  0
   -1.6000   -2.7713    0.0000 Br  0  0  0  0  0  0  0  0  0  0  0  0
  1  2  1  0  0  0  0
  1  3  1  0  0  0  0
  1  4  1  0  0  0  0
  1  5  1  0  0  0  0
  5  6  1  0  0  0  0
  5  7  1  0  0  0  0
  5  8  1  0  0  0  0
  8  9  1  0  0  0  0
  9 10  1  0  0  0  0
  9 11  2  0  0  0  0
 11 12  1  0  0  0  0
 11 13  1  0  0  0  0
 13 14  1  0  0  0  0
 13 15  2  0  0  0  0
 15 16  1  0  0  0  0
 15 17  1  0  0  0  0
 17  8  2  0  0  0  0
 17 18  1  0  0  0  0
M  END
> <ChemID>
100188

> <source_casrn>
85-22-3

> <CAS>
85-22-3

> <SMILES>
c(c(c(c(c1Br)Br)Br)Br)(c1Br)CC

> <NAME>
Pentabromoethylbenzene

> <preferred_name>
2,3,4,5,6-Pentabromoethylbenzene

> <iupac>
1,2,3,4,5-pentabromo-6-ethylbenzene

> <MPID>
100198

> <dsstox_substance_id>
DTXSID7021782

> <Canonical_QSARr>
CCc1c(Br)c(Br)c(Br)c(Br)c1Br

> <InChI_Code_QSARr>
InChI=1S/C8H5Br5/c1-2-3-4(9)6(11)8(13)7(12)5(3)10/h2H2,1H3

> <InChI Key_QSARr>
FIAXCDIQXHJNIX-UHFFFAOYSA-N

> <Salt_Solvent>
?

> <Ready_Biodeg>
0.0

$$$$
100192
  -INDIGO-08031722522D

 20 20  0  0  0  0  0  0  0  0999 V2000
   -2.7712    1.6000    0.0000 O   0  0  0  0  0  0  0  0  0  0  0  0
   -1.3856    2.4000    0.0000 N   0  0  0  0  0  0  0  0  0  0  0  0
   -1.3856    4.0000    0.0000 O   0  0  0  0  0  0  0  0  0  0  0  0
    0.0001    1.6000    0.0000 C   0  0  0  0  0  0  0  0  0  0  0  0
    0.0001    0.0000    0.0000 C   0  0  0  0  0  0  0  0  0  0  0  0
   -1.3856   -0.8000    0.0000 O   0  0  0  0  0  0  0  0  0  0  0  0
   -2.7712    0.0000    0.0000 C   0  0  0  0  0  0  0  0  0  0  0  0
   -4.1569   -0.8000    0.0000 H   0  0  0  0  0  0  0  0  0  0  0  0
   -4.1569    0.8000    0.0000 H   0  0  0  0  0  0  0  0  0  0  0  0
   -2.7712   -1.6000    0.0000 H   0  0  0  0  0  0  0  0  0  0  0  0
    1.3856   -0.8000    0.0000 C   0  0  0  0  0  0  0  0  0  0  0  0
    1.3856   -2.4000    0.0000 N   0  0  0  0  0  0  0  0  0  0  0  0
    2.7713   -3.2000    0.0000 H   0  0  0  0  0  0  0  0  0  0  0  0
    0.0001   -3.2000    0.0000 H   0  0  0  0  0  0  0  0  0  0  0  0
    2.7713    0.0000    0.0000 C   0  0  0  0  0  0  0  0  0  0  0  0
    4.1569   -0.8000    0.0000 H   0  0  0  0  0  0  0  0  0  0  0  0
    2.7713    1.6000    0.0000 C   0  0  0  0  0  0  0  0  0  0  0  0
    4.1569    2.4000    0.0000 H   0  0  0  0  0  0  0  0  0  0  0  0
    1.3856    2.4000    0.0000 C   0  0  0  0  0  0  0  0  0  0  0  0
    1.3856    4.0000    0.0000 H   0  0  0  0  0  0  0  0  0  0  0  0
  1  2  1  0  0  0  0
  2  3  2  0  0  0  0
  2  4  1  0  0  0  0
  4  5  1  0  0  0  0
  5  6  1  0  0  0  0
  6  7  1  0  0  0  0
  7  8  1  0  0  0  0
  7  9  1  0  0  0  0
  7 10  1  0  0  0  0
  5 11  2  0  0  0  0
 11 12  1  0  0  0  0
 12 13  1  0  0  0  0
 12 14  1  0  0  0  0
 11 15  1  0  0  0  0
 15 16  1  0  0  0  0
 15 17  2  0  0  0  0
 17 18  1  0  0  0  0
 17 19  1  0  0  0  0
 19  4  2  0  0  0  0
 19 20  1  0  0  0  0
M  CHG  2   1  -1   2   1
M  END
> <ChemID>
100192

> <source_casrn>
85-45-0

> <CAS>
85-45-0

> <SMILES>
COc1c(N)cccc1[N+]([O-])=O

> <NAME>
Benzenamine, 2-methoxy-3-nitro-

> <preferred_name>
Benzenamine, 2-methoxy-3-nitro-

> <iupac>
2-methoxy-3-nitroaniline

> <MPID>
100202

> <dsstox_substance_id>
DTXSID1058921

> <Canonical_QSARr>
COc1c(N)cccc1[N+]([O-])=O

> <InChI_Code_QSARr>
InChI=1S/C7H8N2O3/c1-12-7-5(8)3-2-4-6(7)9(10)11/h2-4H,8H2,1H3

> <InChI Key_QSARr>
GVBUHJSIDPIOBZ-UHFFFAOYSA-N

> <Salt_Solvent>
?

> <Ready_Biodeg>
0.0

$$$$
100196
  -INDIGO-08031722522D

 25 26  0  0  0  0  0  0  0  0999 V2000
    1.8669    3.5292    0.0000 O   0  0  0  0  0  0  0  0  0  0  0  0
    0.8384    2.3036    0.0000 N   0  0  0  0  0  0  0  0  0  0  0  0
    1.3857    0.8000    0.0000 N   0  0  0  0  0  0  0  0  0  0  0  0
    2.9613    0.5222    0.0000 C   0  0  0  0  0  0  0  0  0  0  0  0
    3.5086   -0.9813    0.0000 C   0  0  0  0  0  0  0  0  0  0  0  0
    2.4802   -2.2071    0.0000 H   0  0  0  0  0  0  0  0  0  0  0  0
    5.0842   -1.2592    0.0000 C   0  0  0  0  0  0  0  0  0  0  0  0
    5.6315   -2.7627    0.0000 H   0  0  0  0  0  0  0  0  0  0  0  0
    6.1126   -0.0335    0.0000 C   0  0  0  0  0  0  0  0  0  0  0  0
    7.6884   -0.3113    0.0000 H   0  0  0  0  0  0  0  0  0  0  0  0
    5.5655    1.4700    0.0000 C   0  0  0  0  0  0  0  0  0  0  0  0
    6.5940    2.6957    0.0000 H   0  0  0  0  0  0  0  0  0  0  0  0
    3.9898    1.7478    0.0000 C   0  0  0  0  0  0  0  0  0  0  0  0
    3.4426    3.2514    0.0000 H   0  0  0  0  0  0  0  0  0  0  0  0
   -0.0001    0.0001    0.0000 C   0  0  0  0  0  0  0  0  0  0  0  0
   -0.0001   -1.6000    0.0000 C   0  0  0  0  0  0  0  0  0  0  0  0
    1.3857   -2.4000    0.0000 H   0  0  0  0  0  0  0  0  0  0  0  0
   -1.3857   -2.4000    0.0000 C   0  0  0  0  0  0  0  0  0  0  0  0
   -1.3857   -4.0000    0.0000 H   0  0  0  0  0  0  0  0  0  0  0  0
   -2.7713   -1.6000    0.0000 C   0  0  0  0  0  0  0  0  0  0  0  0
   -4.1569   -2.4000    0.0000 H   0  0  0  0  0  0  0  0  0  0  0  0
   -2.7713    0.0001    0.0000 C   0  0  0  0  0  0  0  0  0  0  0  0
   -4.1569    0.8000    0.0000 H   0  0  0  0  0  0  0  0  0  0  0  0
   -1.3857    0.8000    0.0000 C   0  0  0  0  0  0  0  0  0  0  0  0
   -1.3857    2.3999    0.0000 H   0  0  0  0  0  0  0  0  0  0  0  0
  1  2  2  0  0  0  0
  2  3  1  0  0  0  0
  3  4  1  0  0  0  0
  4  5  1  0  0  0  0
  5  6  1  0  0  0  0
  5  7  2  0  0  0  0
  7  8  1  0  0  0  0
  7  9  1  0  0  0  0
  9 10  1  0  0  0  0
  9 11  2  0  0  0  0
 11 12  1  0  0  0  0
 11 13  1  0  0  0  0
 13  4  2  0  0  0  0
 13 14  1  0  0  0  0
  3 15  1  0  0  0  0
 15 16  1  0  0  0  0
 16 17  1  0  0  0  0
 16 18  2  0  0  0  0
 18 19  1  0  0  0  0
 18 20  1  0  0  0  0
 20 21  1  0  0  0  0
 20 22  2  0  0  0  0
 22 23  1  0  0  0  0
 22 24  1  0  0  0  0
 24 15  2  0  0  0  0
 24 25  1  0  0  0  0
M  END
> <ChemID>
100196

> <source_casrn>
86-30-6

> <CAS>
86-30-6

> <SMILES>
O=NN(c1ccccc1)c1ccccc1

> <NAME>
Benzenamine, N-nitroso-N-phenyl-

> <preferred_name>
N-Nitrosodiphenylamine

> <iupac>
N-nitroso-N-phenylaniline

> <MPID>
100206

> <dsstox_substance_id>
DTXSID6021030

> <Canonical_QSARr>
O=NN(c1ccccc1)c1ccccc1

> <InChI_Code_QSARr>
InChI=1S/C12H10N2O/c15-13-14(11-7-3-1-4-8-11)12-9-5-2-6-10-12/h1-10H

> <InChI Key_QSARr>
UBUCNCOMADRQHX-UHFFFAOYSA-N

> <Salt_Solvent>
?

> <Ready_Biodeg>
1.0

$$$$
100200
  -INDIGO-08031722522D

 22 24  0  0  0  0  0  0  0  0999 V2000
    0.0000    0.0000    0.0000 C   0  0  0  0  0  0  0  0  0  0  0  0
    1.5651    0.3327    0.0000 C   0  0  0  0  0  0  0  0  0  0  0  0
    1.7322    1.9239    0.0000 C   0  0  0  0  0  0  0  0  0  0  0  0
    3.1939    2.5747    0.0000 C   0  0  0  0  0  0  0  0  0  0  0  0
    3.3612    4.1659    0.0000 H   0  0  0  0  0  0  0  0  0  0  0  0
    4.4883    1.6342    0.0000 C   0  0  0  0  0  0  0  0  0  0  0  0
    5.9501    2.2850    0.0000 H   0  0  0  0  0  0  0  0  0  0  0  0
    4.3212    0.0430    0.0000 C   0  0  0  0  0  0  0  0  0  0  0  0
    5.6156   -0.8974    0.0000 H   0  0  0  0  0  0  0  0  0  0  0  0
    2.8595   -0.6078    0.0000 C   0  0  0  0  0  0  0  0  0  0  0  0
    2.6921   -2.1990    0.0000 H   0  0  0  0  0  0  0  0  0  0  0  0
    0.2707    2.5747    0.0000 N   0  0  0  0  0  0  0  0  0  0  0  0
   -0.0620    4.1398    0.0000 H   0  0  0  0  0  0  0  0  0  0  0  0
   -0.8000    1.3856    0.0000 C   0  0  0  0  0  0  0  0  0  0  0  0
   -2.4000    1.3856    0.0000 C   0  0  0  0  0  0  0  0  0  0  0  0
   -3.2000    2.7713    0.0000 H   0  0  0  0  0  0  0  0  0  0  0  0
   -3.2000    0.0000    0.0000 C   0  0  0  0  0  0  0  0  0  0  0  0
   -4.8000    0.0000    0.0000 H   0  0  0  0  0  0  0  0  0  0  0  0
   -2.4000   -1.3856    0.0000 C   0  0  0  0  0  0  0  0  0  0  0  0
   -3.2000   -2.7713    0.0000 H   0  0  0  0  0  0  0  0  0  0  0  0
   -0.8000   -1.3856    0.0000 C   0  0  0  0  0  0  0  0  0  0  0  0
    0.0000   -2.7713    0.0000 H   0  0  0  0  0  0  0  0  0  0  0  0
  1  2  1  0  0  0  0
  2  3  1  0  0  0  0
  3  4  2  0  0  0  0
  4  5  1  0  0  0  0
  4  6  1  0  0  0  0
  6  7  1  0  0  0  0
  6  8  2  0  0  0  0
  8  9  1  0  0  0  0
  8 10  1  0  0  0  0
 10  2  2  0  0  0  0
 10 11  1  0  0  0  0
  3 12  1  0  0  0  0
 12 13  1  0  0  0  0
 12 14  1  0  0  0  0
 14  1  1  0  0  0  0
 14 15  2  0  0  0  0
 15 16  1  0  0  0  0
 15 17  1  0  0  0  0
 17 18  1  0  0  0  0
 17 19  2  0  0  0  0
 19 20  1  0  0  0  0
 19 21  1  0  0  0  0
 21  1  2  0  0  0  0
 21 22  1  0  0  0  0
M  END
> <ChemID>
100200

> <source_casrn>
86-74-8

> <CAS>
86-74-8

> <SMILES>
c1cccc2[nH]c3ccccc3c21

> <NAME>
9H-Carbazole

> <preferred_name>
Carbazole

> <iupac>
9H-carbazole

> <MPID>
100210

> <dsstox_substance_id>
DTXSID4020248

> <Canonical_QSARr>
c1cccc2[nH]c3ccccc3c21

> <InChI_Code_QSARr>
InChI=1S/C12H9N/c1-3-7-11-9(5-1)10-6-2-4-8-12(10)13-11/h1-8,13H

> <InChI Key_QSARr>
UJOBWOGCFQCDNV-UHFFFAOYSA-N

> <Salt_Solvent>
?

> <Ready_Biodeg>
0.0

$$$$
100204
  -INDIGO-08031722522D

 31 31  0  0  0  0  0  0  0  0999 V2000
   -5.5425   -0.0000    0.0000 C   0  0  0  0  0  0  0  0  0  0  0  0
   -5.5425    1.6000    0.0000 O   0  0  0  0  0  0  0  0  0  0  0  0
   -6.9283   -0.8001    0.0000 C   0  0  0  0  0  0  0  0  0  0  0  0
   -8.3138   -0.0000    0.0000 C   0  0  0  0  0  0  0  0  0  0  0  0
   -8.3138    1.6000    0.0000 O   0  0  0  0  0  0  0  0  0  0  0  0
   -9.6996    2.4000    0.0000 H   0  0  0  0  0  0  0  0  0  0  0  0
   -9.6996   -0.8001    0.0000 C   0  0  0  0  0  0  0  0  0  0  0  0
  -11.0851   -0.0000    0.0000 H   0  0  0  0  0  0  0  0  0  0  0  0
   -9.6996   -2.4000    0.0000 C   0  0  0  0  0  0  0  0  0  0  0  0
  -11.0851   -3.2000    0.0000 H   0  0  0  0  0  0  0  0  0  0  0  0
   -8.3138   -3.2000    0.0000 C   0  0  0  0  0  0  0  0  0  0  0  0
   -8.3138   -4.8000    0.0000 H   0  0  0  0  0  0  0  0  0  0  0  0
   -6.9283   -2.4000    0.0000 C   0  0  0  0  0  0  0  0  0  0  0  0
   -5.5425   -3.2000    0.0000 H   0  0  0  0  0  0  0  0  0  0  0  0
   -4.1570   -0.8001    0.0000 O   0  0  0  0  0  0  0  0  0  0  0  0
   -2.7712   -0.0000    0.0000 C   0  0  0  0  0  0  0  0  0  0  0  0
   -3.3836    1.4782    0.0000 H   0  0  0  0  0  0  0  0  0  0  0  0
   -2.1589    1.4782    0.0000 H   0  0  0  0  0  0  0  0  0  0  0  0
   -1.3857   -0.8001    0.0000 C   0  0  0  0  0  0  0  0  0  0  0  0
   -0.7734   -2.2782    0.0000 H   0  0  0  0  0  0  0  0  0  0  0  0
   -1.9978   -2.2782    0.0000 H   0  0  0  0  0  0  0  0  0  0  0  0
    0.0000   -0.0000    0.0000 C   0  0  0  0  0  0  0  0  0  0  0  0
   -1.0284    1.2257    0.0000 H   0  0  0  0  0  0  0  0  0  0  0  0
    1.2256    1.0284    0.0000 C   0  0  0  0  0  0  0  0  0  0  0  0
    2.4514    2.0569    0.0000 H   0  0  0  0  0  0  0  0  0  0  0  0
    2.7292    0.4813    0.0000 H   0  0  0  0  0  0  0  0  0  0  0  0
    0.9478    2.6042    0.0000 H   0  0  0  0  0  0  0  0  0  0  0  0
    1.0285   -1.2256    0.0000 C   0  0  0  0  0  0  0  0  0  0  0  0
    2.0570   -2.4514    0.0000 H   0  0  0  0  0  0  0  0  0  0  0  0
    0.4813   -2.7292    0.0000 H   0  0  0  0  0  0  0  0  0  0  0  0
    2.6042   -0.9478    0.0000 H   0  0  0  0  0  0  0  0  0  0  0  0
  1  2  2  0  0  0  0
  1  3  1  0  0  0  0
  3  4  1  0  0  0  0
  4  5  1  0  0  0  0
  5  6  1  0  0  0  0
  4  7  2  0  0  0  0
  7  8  1  0  0  0  0
  7  9  1  0  0  0  0
  9 10  1  0  0  0  0
  9 11  2  0  0  0  0
 11 12  1  0  0  0  0
 11 13  1  0  0  0  0
 13  3  2  0  0  0  0
 13 14  1  0  0  0  0
  1 15  1  0  0  0  0
 15 16  1  0  0  0  0
 16 17  1  0  0  0  0
 16 18  1  0  0  0  0
 16 19  1  0  0  0  0
 19 20  1  0  0  0  0
 19 21  1  0  0  0  0
 19 22  1  0  0  0  0
 22 23  1  0  0  0  0
 22 24  1  0  0  0  0
 24 25  1  0  0  0  0
 24 26  1  0  0  0  0
 24 27  1  0  0  0  0
 22 28  1  0  0  0  0
 28 29  1  0  0  0  0
 28 30  1  0  0  0  0
 28 31  1  0  0  0  0
M  END
> <ChemID>
100204

> <source_casrn>
87-20-7

> <CAS>
87-20-7

> <SMILES>
CC(C)CCOC(=O)c1ccccc1O

> <NAME>
Benzoic acid, 2-hydroxy-, 3-methylbutyl ester

> <preferred_name>
Isoamyl salicylate

> <iupac>
3-methylbutyl 2-hydroxybenzoate

> <MPID>
100214

> <dsstox_substance_id>
DTXSID9041655

> <Canonical_QSARr>
CC(C)CCOC(=O)c1ccccc1O

> <InChI_Code_QSARr>
InChI=1S/C12H16O3/c1-9(2)7-8-15-12(14)10-5-3-4-6-11(10)13/h3-6,9,13H,7-8H2,1-2H3

> <InChI Key_QSARr>
PMGCQNGBLMMXEW-UHFFFAOYSA-N

> <Salt_Solvent>
?

> <Ready_Biodeg>
1.0

$$$$
100208
  -INDIGO-08031722522D

 13 13  0  0  0  0  0  0  0  0999 V2000
    0.8000    1.3856    0.0000 O   0  0  0  0  0  0  0  0  0  0  0  0
    2.4000    1.3856    0.0000 H   0  0  0  0  0  0  0  0  0  0  0  0
   -0.0000   -0.0000    0.0000 C   0  0  0  0  0  0  0  0  0  0  0  0
    0.8000   -1.3857    0.0000 C   0  0  0  0  0  0  0  0  0  0  0  0
    2.4000   -1.3857    0.0000 Cl  0  0  0  0  0  0  0  0  0  0  0  0
   -0.0000   -2.7713    0.0000 C   0  0  0  0  0  0  0  0  0  0  0  0
    0.8000   -4.1569    0.0000 H   0  0  0  0  0  0  0  0  0  0  0  0
   -1.6000   -2.7713    0.0000 C   0  0  0  0  0  0  0  0  0  0  0  0
   -2.4000   -4.1569    0.0000 H   0  0  0  0  0  0  0  0  0  0  0  0
   -2.4000   -1.3856    0.0000 C   0  0  0  0  0  0  0  0  0  0  0  0
   -4.0000   -1.3856    0.0000 H   0  0  0  0  0  0  0  0  0  0  0  0
   -1.6000   -0.0000    0.0000 C   0  0  0  0  0  0  0  0  0  0  0  0
   -2.4000    1.3856    0.0000 Cl  0  0  0  0  0  0  0  0  0  0  0  0
  1  2  1  0  0  0  0
  1  3  1  0  0  0  0
  3  4  1  0  0  0  0
  4  5  1  0  0  0  0
  4  6  2  0  0  0  0
  6  7  1  0  0  0  0
  6  8  1  0  0  0  0
  8  9  1  0  0  0  0
  8 10  2  0  0  0  0
 10 11  1  0  0  0  0
 10 12  1  0  0  0  0
 12  3  2  0  0  0  0
 12 13  1  0  0  0  0
M  END
> <ChemID>
100208

> <source_casrn>
87-65-0

> <CAS>
87-65-0

> <SMILES>
Oc1c(Cl)cccc1Cl

> <NAME>
Phenol, 2,6-dichloro-

> <preferred_name>
2,6-Dichlorophenol

> <iupac>
2,6-dichlorophenol

> <MPID>
100218

> <dsstox_substance_id>
DTXSID2025004

> <Canonical_QSARr>
Oc1c(Cl)cccc1Cl

> <InChI_Code_QSARr>
InChI=1S/C6H4Cl2O/c7-4-2-1-3-5(8)6(4)9/h1-3,9H

> <InChI Key_QSARr>
HOLHYSJJBXSLMV-UHFFFAOYSA-N

> <Salt_Solvent>
?

> <Ready_Biodeg>
0.0

$$$$
100212
  -INDIGO-08031722522D

 15 15  0  0  0  0  0  0  0  0999 V2000
    0.0000   -0.0000    0.0000 C   0  0  0  0  0  0  0  0  0  0  0  0
   -0.8001    1.3856    0.0000 C   0  0  0  0  0  0  0  0  0  0  0  0
    0.0000    2.7713    0.0000 Br  0  0  0  0  0  0  0  0  0  0  0  0
   -2.4001    1.3856    0.0000 C   0  0  0  0  0  0  0  0  0  0  0  0
   -3.2000    2.7713    0.0000 Br  0  0  0  0  0  0  0  0  0  0  0  0
   -3.2000   -0.0000    0.0000 C   0  0  0  0  0  0  0  0  0  0  0  0
   -4.8000   -0.0000    0.0000 Br  0  0  0  0  0  0  0  0  0  0  0  0
   -2.4001   -1.3856    0.0000 C   0  0  0  0  0  0  0  0  0  0  0  0
   -3.2000   -2.7713    0.0000 Br  0  0  0  0  0  0  0  0  0  0  0  0
   -0.8001   -1.3856    0.0000 C   0  0  0  0  0  0  0  0  0  0  0  0
    0.0000   -2.7713    0.0000 Br  0  0  0  0  0  0  0  0  0  0  0  0
    1.6000   -0.0000    0.0000 C   0  0  0  0  0  0  0  0  0  0  0  0
    3.2000   -0.0000    0.0000 H   0  0  0  0  0  0  0  0  0  0  0  0
    2.4001   -1.3856    0.0000 H   0  0  0  0  0  0  0  0  0  0  0  0
    2.4001    1.3856    0.0000 H   0  0  0  0  0  0  0  0  0  0  0  0
  1  2  1  0  0  0  0
  2  3  1  0  0  0  0
  2  4  2  0  0  0  0
  4  5  1  0  0  0  0
  4  6  1  0  0  0  0
  6  7  1  0  0  0  0
  6  8  2  0  0  0  0
  8  9  1  0  0  0  0
  8 10  1  0  0  0  0
 10  1  2  0  0  0  0
 10 11  1  0  0  0  0
  1 12  1  0  0  0  0
 12 13  1  0  0  0  0
 12 14  1  0  0  0  0
 12 15  1  0  0  0  0
M  END
> <ChemID>
100212

> <source_casrn>
87-83-2

> <CAS>
87-83-2

> <SMILES>
Cc1c(Br)c(Br)c(Br)c(Br)c1Br

> <NAME>
Benzene, pentabromomethyl-

> <preferred_name>
Pentabromotoluene

> <iupac>
1,2,3,4,5-pentabromo-6-methylbenzene

> <MPID>
100222

> <dsstox_substance_id>
DTXSID3025833

> <Canonical_QSARr>
Cc1c(Br)c(Br)c(Br)c(Br)c1Br

> <InChI_Code_QSARr>
InChI=1S/C7H3Br5/c1-2-3(8)5(10)7(12)6(11)4(2)9/h1H3

> <InChI Key_QSARr>
OZHJEQVYCBTHJT-UHFFFAOYSA-N

> <Salt_Solvent>
?

> <Ready_Biodeg>
0.0

$$$$
100216
  -INDIGO-08031722522D

 13 13  0  0  0  0  0  0  0  0999 V2000
    0.8000    1.3856    0.0000 O   0  0  0  0  0  0  0  0  0  0  0  0
    2.4000    1.3856    0.0000 H   0  0  0  0  0  0  0  0  0  0  0  0
   -0.0000   -0.0000    0.0000 C   0  0  0  0  0  0  0  0  0  0  0  0
    0.8000   -1.3857    0.0000 C   0  0  0  0  0  0  0  0  0  0  0  0
    2.4000   -1.3857    0.0000 Cl  0  0  0  0  0  0  0  0  0  0  0  0
   -0.0000   -2.7713    0.0000 C   0  0  0  0  0  0  0  0  0  0  0  0
    0.8000   -4.1569    0.0000 H   0  0  0  0  0  0  0  0  0  0  0  0
   -1.6000   -2.7713    0.0000 C   0  0  0  0  0  0  0  0  0  0  0  0
   -2.4000   -4.1569    0.0000 Cl  0  0  0  0  0  0  0  0  0  0  0  0
   -2.4000   -1.3856    0.0000 C   0  0  0  0  0  0  0  0  0  0  0  0
   -4.0000   -1.3856    0.0000 H   0  0  0  0  0  0  0  0  0  0  0  0
   -1.6000   -0.0000    0.0000 C   0  0  0  0  0  0  0  0  0  0  0  0
   -2.4000    1.3856    0.0000 Cl  0  0  0  0  0  0  0  0  0  0  0  0
  1  2  1  0  0  0  0
  1  3  1  0  0  0  0
  3  4  1  0  0  0  0
  4  5  1  0  0  0  0
  4  6  2  0  0  0  0
  6  7  1  0  0  0  0
  6  8  1  0  0  0  0
  8  9  1  0  0  0  0
  8 10  2  0  0  0  0
 10 11  1  0  0  0  0
 10 12  1  0  0  0  0
 12  3  2  0  0  0  0
 12 13  1  0  0  0  0
M  END
> <ChemID>
100216

> <source_casrn>
88-06-2

> <CAS>
88-06-2

> <SMILES>
Oc1c(Cl)cc(Cl)cc1Cl

> <NAME>
2,4,6-Trichlorophenol

> <preferred_name>
2,4,6-Trichlorophenol

> <iupac>
C6H3Cl3O

> <MPID>
100226

> <dsstox_substance_id>
DTXSID5021386

> <Canonical_QSARr>
Oc1c(Cl)cc(Cl)cc1Cl

> <InChI_Code_QSARr>
InChI=1S/C6H3Cl3O/c7-3-1-4(8)6(10)5(9)2-3/h1-2,10H

> <InChI Key_QSARr>
LINPIYWFGCPVIE-UHFFFAOYSA-N

> <Salt_Solvent>
?

> <Ready_Biodeg>
1.0

$$$$
100220
  -INDIGO-08031722522D

 21 21  0  0  0  0  0  0  0  0999 V2000
   -0.0000    0.0000    0.0000 C   0  0  0  0  0  0  0  0  0  0  0  0
   -0.8000    1.3856    0.0000 C   0  0  0  0  0  0  0  0  0  0  0  0
   -0.0000    2.7713    0.0000 H   0  0  0  0  0  0  0  0  0  0  0  0
   -2.4000    1.3856    0.0000 C   0  0  0  0  0  0  0  0  0  0  0  0
   -3.1999    2.7713    0.0000 Cl  0  0  0  0  0  0  0  0  0  0  0  0
   -3.1999    0.0000    0.0000 C   0  0  0  0  0  0  0  0  0  0  0  0
   -4.8000    0.0000    0.0000 C   0  0  0  0  0  0  0  0  0  0  0  0
   -6.4000    0.0000    0.0000 H   0  0  0  0  0  0  0  0  0  0  0  0
   -5.6000    1.3856    0.0000 H   0  0  0  0  0  0  0  0  0  0  0  0
   -5.6000   -1.3856    0.0000 H   0  0  0  0  0  0  0  0  0  0  0  0
   -2.4000   -1.3856    0.0000 C   0  0  0  0  0  0  0  0  0  0  0  0
   -3.1999   -2.7713    0.0000 H   0  0  0  0  0  0  0  0  0  0  0  0
   -0.8000   -1.3856    0.0000 C   0  0  0  0  0  0  0  0  0  0  0  0
   -0.0000   -2.7713    0.0000 N   0  0  0  0  0  0  0  0  0  0  0  0
   -0.8000   -4.1569    0.0000 H   0  0  0  0  0  0  0  0  0  0  0  0
    1.6001   -2.7713    0.0000 H   0  0  0  0  0  0  0  0  0  0  0  0
    1.6001    0.0000    0.0000 S   0  0  0  0  0  0  0  0  0  0  0  0
    1.6001    1.6000    0.0000 O   0  0  0  0  0  0  0  0  0  0  0  0
    3.2000    0.0000    0.0000 O   0  0  0  0  0  0  0  0  0  0  0  0
    4.0000    1.3856    0.0000 H   0  0  0  0  0  0  0  0  0  0  0  0
    1.6001   -1.6000    0.0000 O   0  0  0  0  0  0  0  0  0  0  0  0
  1  2  1  0  0  0  0
  2  3  1  0  0  0  0
  2  4  2  0  0  0  0
  4  5  1  0  0  0  0
  4  6  1  0  0  0  0
  6  7  1  0  0  0  0
  7  8  1  0  0  0  0
  7  9  1  0  0  0  0
  7 10  1  0  0  0  0
  6 11  2  0  0  0  0
 11 12  1  0  0  0  0
 11 13  1  0  0  0  0
 13  1  2  0  0  0  0
 13 14  1  0  0  0  0
 14 15  1  0  0  0  0
 14 16  1  0  0  0  0
  1 17  1  0  0  0  0
 17 18  2  0  0  0  0
 17 19  1  0  0  0  0
 19 20  1  0  0  0  0
 17 21  2  0  0  0  0
M  END
> <ChemID>
100220

> <source_casrn>
88-53-9

> <CAS>
88-53-9

> <SMILES>
Cc1cc(N)c(cc1Cl)S(O)(=O)=O

> <NAME>
Benzenesulfonic acid, 2-amino-5-chloro-4-methyl-

> <preferred_name>
2-Amino-5-chloro-4-methylbenzenesulfonic acid

> <iupac>
2-amino-5-chloro-4-methylbenzenesulfonic acid

> <MPID>
100230

> <dsstox_substance_id>
DTXSID7026528

> <Canonical_QSARr>
Cc1cc(N)c(cc1Cl)S(O)(=O)=O

> <InChI_Code_QSARr>
InChI=1S/C7H8ClNO3S/c1-4-2-6(9)7(3-5(4)8)13(10,11)12/h2-3H,9H2,1H3,(H,10,11,12)

> <InChI Key_QSARr>
VYZCFAPUHSSYCC-UHFFFAOYSA-N

> <Salt_Solvent>
?

> <Ready_Biodeg>
0.0

$$$$
100224
  -INDIGO-08031722522D

 14 14  0  0  0  0  0  0  0  0999 V2000
    0.0000    2.7713    0.0000 Cl  0  0  0  0  0  0  0  0  0  0  0  0
   -0.8000    1.3856    0.0000 C   0  0  0  0  0  0  0  0  0  0  0  0
    0.0000   -0.0000    0.0000 C   0  0  0  0  0  0  0  0  0  0  0  0
    1.6000   -0.0000    0.0000 N   0  0  0  0  0  0  0  0  0  0  0  0
    2.4000    1.3856    0.0000 O   0  0  0  0  0  0  0  0  0  0  0  0
    2.4000   -1.3856    0.0000 O   0  0  0  0  0  0  0  0  0  0  0  0
   -0.8000   -1.3856    0.0000 C   0  0  0  0  0  0  0  0  0  0  0  0
    0.0000   -2.7713    0.0000 H   0  0  0  0  0  0  0  0  0  0  0  0
   -2.4000   -1.3856    0.0000 C   0  0  0  0  0  0  0  0  0  0  0  0
   -3.2000   -2.7713    0.0000 H   0  0  0  0  0  0  0  0  0  0  0  0
   -3.2000   -0.0000    0.0000 C   0  0  0  0  0  0  0  0  0  0  0  0
   -4.8000   -0.0000    0.0000 H   0  0  0  0  0  0  0  0  0  0  0  0
   -2.4000    1.3856    0.0000 C   0  0  0  0  0  0  0  0  0  0  0  0
   -3.2000    2.7713    0.0000 H   0  0  0  0  0  0  0  0  0  0  0  0
  1  2  1  0  0  0  0
  2  3  1  0  0  0  0
  3  4  1  0  0  0  0
  4  5  2  0  0  0  0
  4  6  1  0  0  0  0
  3  7  2  0  0  0  0
  7  8  1  0  0  0  0
  7  9  1  0  0  0  0
  9 10  1  0  0  0  0
  9 11  2  0  0  0  0
 11 12  1  0  0  0  0
 11 13  1  0  0  0  0
 13  2  2  0  0  0  0
 13 14  1  0  0  0  0
M  CHG  2   4   1   6  -1
M  END
> <ChemID>
100224

> <source_casrn>
88-73-3

> <CAS>
88-73-3

> <SMILES>
[O-][N+](=O)c1ccccc1Cl

> <NAME>
Benzene, 1-chloro-2-nitro-

> <preferred_name>
1-Chloro-2-nitrobenzene

> <iupac>
1-chloro-2-nitrobenzene

> <MPID>
100234

> <dsstox_substance_id>
DTXSID0020280

> <Canonical_QSARr>
[O-][N+](=O)c1ccccc1Cl

> <InChI_Code_QSARr>
InChI=1S/C6H4ClNO2/c7-5-3-1-2-4-6(5)8(9)10/h1-4H

> <InChI Key_QSARr>
BFCFYVKQTRLZHA-UHFFFAOYSA-N

> <Salt_Solvent>
?

> <Ready_Biodeg>
0.0

$$$$
100228
  -INDIGO-08031722522D

 18 18  0  0  0  0  0  0  0  0999 V2000
    2.4001    1.3856    0.0000 O   0  0  0  0  0  0  0  0  0  0  0  0
    3.2000    2.7713    0.0000 H   0  0  0  0  0  0  0  0  0  0  0  0
    0.8001    1.3856    0.0000 C   0  0  0  0  0  0  0  0  0  0  0  0
    0.0000    0.0000    0.0000 C   0  0  0  0  0  0  0  0  0  0  0  0
    0.8001   -1.3856    0.0000 C   0  0  0  0  0  0  0  0  0  0  0  0
    2.4001   -1.3856    0.0000 H   0  0  0  0  0  0  0  0  0  0  0  0
    0.0000   -2.7713    0.0000 C   0  0  0  0  0  0  0  0  0  0  0  0
    0.8001   -4.1569    0.0000 H   0  0  0  0  0  0  0  0  0  0  0  0
   -1.6000   -2.7713    0.0000 C   0  0  0  0  0  0  0  0  0  0  0  0
   -2.4001   -4.1569    0.0000 H   0  0  0  0  0  0  0  0  0  0  0  0
   -2.4001   -1.3856    0.0000 C   0  0  0  0  0  0  0  0  0  0  0  0
   -4.0001   -1.3856    0.0000 H   0  0  0  0  0  0  0  0  0  0  0  0
   -1.6000    0.0000    0.0000 C   0  0  0  0  0  0  0  0  0  0  0  0
   -2.3999    1.3856    0.0000 C   0  0  0  0  0  0  0  0  0  0  0  0
   -3.9999    1.3856    0.0000 O   0  0  0  0  0  0  0  0  0  0  0  0
   -4.8000    2.7713    0.0000 H   0  0  0  0  0  0  0  0  0  0  0  0
   -1.6000    2.7713    0.0000 O   0  0  0  0  0  0  0  0  0  0  0  0
    0.0000    2.7713    0.0000 O   0  0  0  0  0  0  0  0  0  0  0  0
  1  2  1  0  0  0  0
  1  3  1  0  0  0  0
  3  4  1  0  0  0  0
  4  5  1  0  0  0  0
  5  6  1  0  0  0  0
  5  7  2  0  0  0  0
  7  8  1  0  0  0  0
  7  9  1  0  0  0  0
  9 10  1  0  0  0  0
  9 11  2  0  0  0  0
 11 12  1  0  0  0  0
 11 13  1  0  0  0  0
 13  4  2  0  0  0  0
 13 14  1  0  0  0  0
 14 15  1  0  0  0  0
 15 16  1  0  0  0  0
 14 17  2  0  0  0  0
  3 18  2  0  0  0  0
M  END
> <ChemID>
100228

> <source_casrn>
88-99-3

> <CAS>
88-99-3

> <SMILES>
OC(=O)c1ccccc1C(O)=O

> <NAME>
Phthalic acid

> <preferred_name>
Phthalic acid

> <iupac>
benzene-1,2-dicarboxylic acid

> <MPID>
100238

> <dsstox_substance_id>
DTXSID8021484

> <Canonical_QSARr>
OC(=O)c1ccccc1C(O)=O

> <InChI_Code_QSARr>
InChI=1S/C8H6O4/c9-7(10)5-3-1-2-4-6(5)8(11)12/h1-4H,(H,9,10)(H,11,12)

> <InChI Key_QSARr>
XNGIFLGASWRNHJ-UHFFFAOYSA-N

> <Salt_Solvent>
?

> <Ready_Biodeg>
1.0

$$$$
100232
  -INDIGO-08031722522D

 18 18  0  0  0  0  0  0  0  0999 V2000
    0.8000    1.3856    0.0000 C   0  0  0  0  0  0  0  0  0  0  0  0
    0.0000    2.7713    0.0000 N   0  0  0  0  0  0  0  0  0  0  0  0
    0.8000    4.1569    0.0000 H   0  0  0  0  0  0  0  0  0  0  0  0
   -1.6000    2.7713    0.0000 H   0  0  0  0  0  0  0  0  0  0  0  0
    0.0000    0.0000    0.0000 C   0  0  0  0  0  0  0  0  0  0  0  0
   -1.6000    0.0000    0.0000 O   0  0  0  0  0  0  0  0  0  0  0  0
   -2.4001   -1.3856    0.0000 C   0  0  0  0  0  0  0  0  0  0  0  0
   -4.0000   -1.3856    0.0000 H   0  0  0  0  0  0  0  0  0  0  0  0
   -3.2000   -2.7713    0.0000 H   0  0  0  0  0  0  0  0  0  0  0  0
   -3.2000    0.0000    0.0000 H   0  0  0  0  0  0  0  0  0  0  0  0
    0.8000   -1.3856    0.0000 C   0  0  0  0  0  0  0  0  0  0  0  0
    0.0000   -2.7713    0.0000 H   0  0  0  0  0  0  0  0  0  0  0  0
    2.4000   -1.3856    0.0000 C   0  0  0  0  0  0  0  0  0  0  0  0
    3.2001   -2.7713    0.0000 H   0  0  0  0  0  0  0  0  0  0  0  0
    3.2001    0.0000    0.0000 C   0  0  0  0  0  0  0  0  0  0  0  0
    4.8000    0.0000    0.0000 H   0  0  0  0  0  0  0  0  0  0  0  0
    2.4000    1.3856    0.0000 C   0  0  0  0  0  0  0  0  0  0  0  0
    3.2001    2.7713    0.0000 H   0  0  0  0  0  0  0  0  0  0  0  0
  1  2  1  0  0  0  0
  2  3  1  0  0  0  0
  2  4  1  0  0  0  0
  1  5  1  0  0  0  0
  5  6  1  0  0  0  0
  6  7  1  0  0  0  0
  7  8  1  0  0  0  0
  7  9  1  0  0  0  0
  7 10  1  0  0  0  0
  5 11  2  0  0  0  0
 11 12  1  0  0  0  0
 11 13  1  0  0  0  0
 13 14  1  0  0  0  0
 13 15  2  0  0  0  0
 15 16  1  0  0  0  0
 15 17  1  0  0  0  0
 17  1  2  0  0  0  0
 17 18  1  0  0  0  0
M  END
> <ChemID>
100232

> <source_casrn>
90-04-0

> <CAS>
90-04-0

> <SMILES>
COc1ccccc1N

> <NAME>
Benzenamine, 2-methoxy-

> <preferred_name>
2-Anisidine

> <iupac>
2-methoxyaniline

> <MPID>
100242

> <dsstox_substance_id>
DTXSID5023877

> <Canonical_QSARr>
COc1ccccc1N

> <InChI_Code_QSARr>
InChI=1S/C7H9NO/c1-9-7-5-3-2-4-6(7)8/h2-5H,8H2,1H3

> <InChI Key_QSARr>
VMPITZXILSNTON-UHFFFAOYSA-N

> <Salt_Solvent>
?

> <Ready_Biodeg>
1.0

$$$$
100236
  -INDIGO-08031722522D

 30 32  0  0  0  0  0  0  0  0999 V2000
    2.7712   -0.0000    0.0000 N   0  0  0  0  0  0  0  0  0  0  0  0
    2.7712    1.6000    0.0000 H   0  0  0  0  0  0  0  0  0  0  0  0
    1.3856   -0.8000    0.0000 C   0  0  0  0  0  0  0  0  0  0  0  0
    0.0000   -0.0000    0.0000 C   0  0  0  0  0  0  0  0  0  0  0  0
   -1.3856   -0.8000    0.0000 C   0  0  0  0  0  0  0  0  0  0  0  0
   -2.7713   -0.0000    0.0000 C   0  0  0  0  0  0  0  0  0  0  0  0
   -4.1569   -0.8000    0.0000 H   0  0  0  0  0  0  0  0  0  0  0  0
   -2.7713    1.6000    0.0000 C   0  0  0  0  0  0  0  0  0  0  0  0
   -4.1569    2.4001    0.0000 H   0  0  0  0  0  0  0  0  0  0  0  0
   -1.3856    2.4001    0.0000 C   0  0  0  0  0  0  0  0  0  0  0  0
   -1.3856    4.0000    0.0000 H   0  0  0  0  0  0  0  0  0  0  0  0
    0.0000    1.6000    0.0000 C   0  0  0  0  0  0  0  0  0  0  0  0
    1.3856    2.4001    0.0000 H   0  0  0  0  0  0  0  0  0  0  0  0
   -1.3856   -2.4000    0.0000 C   0  0  0  0  0  0  0  0  0  0  0  0
   -2.7713   -3.2001    0.0000 H   0  0  0  0  0  0  0  0  0  0  0  0
    0.0000   -3.2001    0.0000 C   0  0  0  0  0  0  0  0  0  0  0  0
    0.0000   -4.8000    0.0000 H   0  0  0  0  0  0  0  0  0  0  0  0
    1.3856   -2.4000    0.0000 C   0  0  0  0  0  0  0  0  0  0  0  0
    2.7712   -3.2001    0.0000 H   0  0  0  0  0  0  0  0  0  0  0  0
    4.3470   -0.2779    0.0000 C   0  0  0  0  0  0  0  0  0  0  0  0
    4.8943   -1.7814    0.0000 C   0  0  0  0  0  0  0  0  0  0  0  0
    3.8656   -3.0070    0.0000 H   0  0  0  0  0  0  0  0  0  0  0  0
    6.4699   -2.0592    0.0000 C   0  0  0  0  0  0  0  0  0  0  0  0
    7.0172   -3.5628    0.0000 H   0  0  0  0  0  0  0  0  0  0  0  0
    7.4983   -0.8335    0.0000 C   0  0  0  0  0  0  0  0  0  0  0  0
    9.0741   -1.1113    0.0000 H   0  0  0  0  0  0  0  0  0  0  0  0
    6.9512    0.6700    0.0000 C   0  0  0  0  0  0  0  0  0  0  0  0
    7.9796    1.8957    0.0000 H   0  0  0  0  0  0  0  0  0  0  0  0
    5.3754    0.9478    0.0000 C   0  0  0  0  0  0  0  0  0  0  0  0
    4.8283    2.4514    0.0000 H   0  0  0  0  0  0  0  0  0  0  0  0
  1  2  1  0  0  0  0
  1  3  1  0  0  0  0
  3  4  1  0  0  0  0
  4  5  1  0  0  0  0
  5  6  2  0  0  0  0
  6  7  1  0  0  0  0
  6  8  1  0  0  0  0
  8  9  1  0  0  0  0
  8 10  2  0  0  0  0
 10 11  1  0  0  0  0
 10 12  1  0  0  0  0
 12  4  2  0  0  0  0
 12 13  1  0  0  0  0
  5 14  1  0  0  0  0
 14 15  1  0  0  0  0
 14 16  2  0  0  0  0
 16 17  1  0  0  0  0
 16 18  1  0  0  0  0
 18  3  2  0  0  0  0
 18 19  1  0  0  0  0
  1 20  1  0  0  0  0
 20 21  1  0  0  0  0
 21 22  1  0  0  0  0
 21 23  2  0  0  0  0
 23 24  1  0  0  0  0
 23 25  1  0  0  0  0
 25 26  1  0  0  0  0
 25 27  2  0  0  0  0
 27 28  1  0  0  0  0
 27 29  1  0  0  0  0
 29 20  2  0  0  0  0
 29 30  1  0  0  0  0
M  END
> <ChemID>
100236

> <source_casrn>
90-30-2

> <CAS>
90-30-2

> <SMILES>
c1cccc2c(cccc21)Nc1ccccc1

> <NAME>
1-Naphthalenamine, N-phenyl-

> <preferred_name>
N-Phenyl-1-naphthylamine

> <iupac>
N-phenylnaphthalen-1-amine

> <MPID>
100246

> <dsstox_substance_id>
DTXSID2025892

> <Canonical_QSARr>
c1cccc2c(cccc21)Nc1ccccc1

> <InChI_Code_QSARr>
InChI=1S/C16H13N/c1-2-9-14(10-3-1)17-16-12-6-8-13-7-4-5-11-15(13)16/h1-12,17H

> <InChI Key_QSARr>
XQVWYOYUZDUNRW-UHFFFAOYSA-N

> <Salt_Solvent>
?

> <Ready_Biodeg>
0.0

$$$$
100240
  -INDIGO-08031722522D

 40 41  0  0  0  0  0  0  0  0999 V2000
    3.8792    3.9757    0.0000 O   0  0  0  0  0  0  0  0  0  0  0  0
    4.1569    2.4000    0.0000 C   0  0  0  0  0  0  0  0  0  0  0  0
    5.7325    2.1221    0.0000 C   0  0  0  0  0  0  0  0  0  0  0  0
    6.2799    0.6186    0.0000 C   0  0  0  0  0  0  0  0  0  0  0  0
    5.2514   -0.6070    0.0000 H   0  0  0  0  0  0  0  0  0  0  0  0
    7.8554    0.3408    0.0000 C   0  0  0  0  0  0  0  0  0  0  0  0
    8.4028   -1.1627    0.0000 H   0  0  0  0  0  0  0  0  0  0  0  0
    8.8839    1.5665    0.0000 C   0  0  0  0  0  0  0  0  0  0  0  0
   10.4598    1.2887    0.0000 N   0  0  0  0  0  0  0  0  0  0  0  0
   11.0069   -0.2149    0.0000 C   0  0  0  0  0  0  0  0  0  0  0  0
   11.5542   -1.7184    0.0000 H   0  0  0  0  0  0  0  0  0  0  0  0
   12.5827   -0.4927    0.0000 H   0  0  0  0  0  0  0  0  0  0  0  0
    9.9784   -1.4406    0.0000 H   0  0  0  0  0  0  0  0  0  0  0  0
   11.4883    2.5144    0.0000 C   0  0  0  0  0  0  0  0  0  0  0  0
   12.5165    3.7400    0.0000 H   0  0  0  0  0  0  0  0  0  0  0  0
   13.0638    2.2365    0.0000 H   0  0  0  0  0  0  0  0  0  0  0  0
   10.9409    4.0179    0.0000 H   0  0  0  0  0  0  0  0  0  0  0  0
    8.3368    3.0700    0.0000 C   0  0  0  0  0  0  0  0  0  0  0  0
    9.3653    4.2957    0.0000 H   0  0  0  0  0  0  0  0  0  0  0  0
    6.7610    3.3478    0.0000 C   0  0  0  0  0  0  0  0  0  0  0  0
    6.2139    4.8513    0.0000 H   0  0  0  0  0  0  0  0  0  0  0  0
    2.7713    1.6000    0.0000 C   0  0  0  0  0  0  0  0  0  0  0  0
    2.7713    0.0000    0.0000 C   0  0  0  0  0  0  0  0  0  0  0  0
    4.1569   -0.8000    0.0000 H   0  0  0  0  0  0  0  0  0  0  0  0
    1.3857   -0.8000    0.0000 C   0  0  0  0  0  0  0  0  0  0  0  0
    1.3857   -2.4000    0.0000 H   0  0  0  0  0  0  0  0  0  0  0  0
    0.0001    0.0000    0.0000 C   0  0  0  0  0  0  0  0  0  0  0  0
   -1.3857   -0.8000    0.0000 N   0  0  0  0  0  0  0  0  0  0  0  0
   -1.3857   -2.4000    0.0000 C   0  0  0  0  0  0  0  0  0  0  0  0
   -1.3857   -4.0000    0.0000 H   0  0  0  0  0  0  0  0  0  0  0  0
   -2.7713   -3.2000    0.0000 H   0  0  0  0  0  0  0  0  0  0  0  0
    0.0001   -3.2000    0.0000 H   0  0  0  0  0  0  0  0  0  0  0  0
   -2.7713    0.0000    0.0000 C   0  0  0  0  0  0  0  0  0  0  0  0
   -4.1569    0.8000    0.0000 H   0  0  0  0  0  0  0  0  0  0  0  0
   -4.1569   -0.8000    0.0000 H   0  0  0  0  0  0  0  0  0  0  0  0
   -2.7713    1.6000    0.0000 H   0  0  0  0  0  0  0  0  0  0  0  0
    0.0001    1.6000    0.0000 C   0  0  0  0  0  0  0  0  0  0  0  0
   -1.3857    2.4000    0.0000 H   0  0  0  0  0  0  0  0  0  0  0  0
    1.3857    2.4000    0.0000 C   0  0  0  0  0  0  0  0  0  0  0  0
    1.3857    4.0000    0.0000 H   0  0  0  0  0  0  0  0  0  0  0  0
  1  2  2  0  0  0  0
  2  3  1  0  0  0  0
  3  4  1  0  0  0  0
  4  5  1  0  0  0  0
  4  6  2  0  0  0  0
  6  7  1  0  0  0  0
  6  8  1  0  0  0  0
  8  9  1  0  0  0  0
  9 10  1  0  0  0  0
 10 11  1  0  0  0  0
 10 12  1  0  0  0  0
 10 13  1  0  0  0  0
  9 14  1  0  0  0  0
 14 15  1  0  0  0  0
 14 16  1  0  0  0  0
 14 17  1  0  0  0  0
  8 18  2  0  0  0  0
 18 19  1  0  0  0  0
 18 20  1  0  0  0  0
 20  3  2  0  0  0  0
 20 21  1  0  0  0  0
  2 22  1  0  0  0  0
 22 23  1  0  0  0  0
 23 24  1  0  0  0  0
 23 25  2  0  0  0  0
 25 26  1  0  0  0  0
 25 27  1  0  0  0  0
 27 28  1  0  0  0  0
 28 29  1  0  0  0  0
 29 30  1  0  0  0  0
 29 31  1  0  0  0  0
 29 32  1  0  0  0  0
 28 33  1  0  0  0  0
 33 34  1  0  0  0  0
 33 35  1  0  0  0  0
 33 36  1  0  0  0  0
 27 37  2  0  0  0  0
 37 38  1  0  0  0  0
 37 39  1  0  0  0  0
 39 22  2  0  0  0  0
 39 40  1  0  0  0  0
M  END
> <ChemID>
100240

> <source_casrn>
90-94-8

> <CAS>
90-94-8

> <SMILES>
O=C(c(ccc(N(C)C)c1)c1)c(ccc(N(C)C)c2)c2

> <NAME>
Methanone, bis 4-(dimethylamino)phenyl -

> <preferred_name>
Michler's ketone

> <iupac>
bis[4-(dimethylamino)phenyl]methanone

> <MPID>
100250

> <dsstox_substance_id>
DTXSID2020894

> <Canonical_QSARr>
CN(C)c1ccc(cc1)C(=O)c1ccc(cc1)N(C)C

> <InChI_Code_QSARr>
InChI=1S/C17H20N2O/c1-18(2)15-9-5-13(6-10-15)17(20)14-7-11-16(12-8-14)19(3)4/h5-12H,1-4H3

> <InChI Key_QSARr>
VVBLNCFGVYUYGU-UHFFFAOYSA-N

> <Salt_Solvent>
?

> <Ready_Biodeg>
0.0

$$$$
100244
  -INDIGO-08031722522D

 20 20  0  0  0  0  0  0  0  0999 V2000
    0.0000    0.0000    0.0000 C   0  0  0  0  0  0  0  0  0  0  0  0
    0.8000    1.3856    0.0000 O   0  0  0  0  0  0  0  0  0  0  0  0
    2.4001    1.3856    0.0000 C   0  0  0  0  0  0  0  0  0  0  0  0
    3.2000    2.7713    0.0000 H   0  0  0  0  0  0  0  0  0  0  0  0
    4.0000    1.3856    0.0000 H   0  0  0  0  0  0  0  0  0  0  0  0
    1.6000    2.7713    0.0000 H   0  0  0  0  0  0  0  0  0  0  0  0
   -1.6000    0.0000    0.0000 C   0  0  0  0  0  0  0  0  0  0  0  0
   -2.4000    1.3856    0.0000 O   0  0  0  0  0  0  0  0  0  0  0  0
   -4.0001    1.3856    0.0000 C   0  0  0  0  0  0  0  0  0  0  0  0
   -4.8000    2.7713    0.0000 H   0  0  0  0  0  0  0  0  0  0  0  0
   -5.6000    1.3856    0.0000 H   0  0  0  0  0  0  0  0  0  0  0  0
   -3.2000    2.7713    0.0000 H   0  0  0  0  0  0  0  0  0  0  0  0
   -2.4000   -1.3856    0.0000 C   0  0  0  0  0  0  0  0  0  0  0  0
   -3.9999   -1.3856    0.0000 H   0  0  0  0  0  0  0  0  0  0  0  0
   -1.6000   -2.7713    0.0000 C   0  0  0  0  0  0  0  0  0  0  0  0
   -2.4000   -4.1569    0.0000 H   0  0  0  0  0  0  0  0  0  0  0  0
    0.0000   -2.7713    0.0000 C   0  0  0  0  0  0  0  0  0  0  0  0
    0.8000   -4.1569    0.0000 H   0  0  0  0  0  0  0  0  0  0  0  0
    0.8000   -1.3856    0.0000 C   0  0  0  0  0  0  0  0  0  0  0  0
    2.4001   -1.3856    0.0000 H   0  0  0  0  0  0  0  0  0  0  0  0
  1  2  1  0  0  0  0
  2  3  1  0  0  0  0
  3  4  1  0  0  0  0
  3  5  1  0  0  0  0
  3  6  1  0  0  0  0
  1  7  1  0  0  0  0
  7  8  1  0  0  0  0
  8  9  1  0  0  0  0
  9 10  1  0  0  0  0
  9 11  1  0  0  0  0
  9 12  1  0  0  0  0
  7 13  2  0  0  0  0
 13 14  1  0  0  0  0
 13 15  1  0  0  0  0
 15 16  1  0  0  0  0
 15 17  2  0  0  0  0
 17 18  1  0  0  0  0
 17 19  1  0  0  0  0
 19  1  2  0  0  0  0
 19 20  1  0  0  0  0
M  END
> <ChemID>
100244

> <source_casrn>
91-16-7

> <CAS>
91-16-7

> <SMILES>
COc1ccccc1OC

> <NAME>
Benzene, 1,2-dimethoxy-

> <preferred_name>
1,2-Dimethoxybenzene

> <iupac>
1,2-dimethoxybenzene

> <MPID>
100254

> <dsstox_substance_id>
DTXSID7047065

> <Canonical_QSARr>
COc1ccccc1OC

> <InChI_Code_QSARr>
InChI=1S/C8H10O2/c1-9-7-5-3-4-6-8(7)10-2/h3-6H,1-2H3

> <InChI Key_QSARr>
ABDKAPXRBAPSQN-UHFFFAOYSA-N

> <Salt_Solvent>
?

> <Ready_Biodeg>
1.0

$$$$
100248
  -INDIGO-08031722522D

 18 18  0  0  0  0  0  0  0  0999 V2000
    2.4001   -1.3856    0.0000 C   0  0  0  0  0  0  0  0  0  0  0  0
    4.0000   -1.3856    0.0000 H   0  0  0  0  0  0  0  0  0  0  0  0
    3.2000   -2.7713    0.0000 H   0  0  0  0  0  0  0  0  0  0  0  0
    3.2000    0.0000    0.0000 H   0  0  0  0  0  0  0  0  0  0  0  0
    1.6000    0.0000    0.0000 O   0  0  0  0  0  0  0  0  0  0  0  0
   -0.0000    0.0000    0.0000 C   0  0  0  0  0  0  0  0  0  0  0  0
   -0.8000    1.3856    0.0000 C   0  0  0  0  0  0  0  0  0  0  0  0
   -0.0000    2.7713    0.0000 N   0  0  0  0  0  0  0  0  0  0  0  0
   -0.8000    4.1569    0.0000 O   0  0  0  0  0  0  0  0  0  0  0  0
    1.6000    2.7713    0.0000 O   0  0  0  0  0  0  0  0  0  0  0  0
   -2.4000    1.3856    0.0000 C   0  0  0  0  0  0  0  0  0  0  0  0
   -3.2001    2.7713    0.0000 H   0  0  0  0  0  0  0  0  0  0  0  0
   -3.2001    0.0000    0.0000 C   0  0  0  0  0  0  0  0  0  0  0  0
   -4.8000    0.0000    0.0000 H   0  0  0  0  0  0  0  0  0  0  0  0
   -2.4000   -1.3856    0.0000 C   0  0  0  0  0  0  0  0  0  0  0  0
   -3.2001   -2.7713    0.0000 H   0  0  0  0  0  0  0  0  0  0  0  0
   -0.8000   -1.3856    0.0000 C   0  0  0  0  0  0  0  0  0  0  0  0
   -0.0000   -2.7713    0.0000 H   0  0  0  0  0  0  0  0  0  0  0  0
  1  2  1  0  0  0  0
  1  3  1  0  0  0  0
  1  4  1  0  0  0  0
  1  5  1  0  0  0  0
  5  6  1  0  0  0  0
  6  7  1  0  0  0  0
  7  8  1  0  0  0  0
  8  9  2  0  0  0  0
  8 10  1  0  0  0  0
  7 11  2  0  0  0  0
 11 12  1  0  0  0  0
 11 13  1  0  0  0  0
 13 14  1  0  0  0  0
 13 15  2  0  0  0  0
 15 16  1  0  0  0  0
 15 17  1  0  0  0  0
 17  6  2  0  0  0  0
 17 18  1  0  0  0  0
M  CHG  2   8   1  10  -1
M  END
> <ChemID>
100248

> <source_casrn>
91-23-6

> <CAS>
91-23-6

> <SMILES>
COc1ccccc1[N+]([O-])=O

> <NAME>
Benzene, 1-methoxy-2-nitro-

> <preferred_name>
1-Methoxy-2-nitrobenzene

> <iupac>
1-methoxy-2-nitrobenzene

> <MPID>
100258

> <dsstox_substance_id>
DTXSID3020962

> <Canonical_QSARr>
COc1ccccc1[N+]([O-])=O

> <InChI_Code_QSARr>
InChI=1S/C7H7NO3/c1-11-7-5-3-2-4-6(7)8(9)10/h2-5H,1H3

> <InChI Key_QSARr>
CFBYEGUGFPZCNF-UHFFFAOYSA-N

> <Salt_Solvent>
?

> <Ready_Biodeg>
0.0

$$$$
100252
  -INDIGO-08031722522D

 26 26  0  0  0  0  0  0  0  0999 V2000
    2.4001    1.3856    0.0000 C   0  0  0  0  0  0  0  0  0  0  0  0
    3.2000    2.7712    0.0000 H   0  0  0  0  0  0  0  0  0  0  0  0
    4.0000    1.3856    0.0000 H   0  0  0  0  0  0  0  0  0  0  0  0
    1.6001    2.7712    0.0000 H   0  0  0  0  0  0  0  0  0  0  0  0
    0.7999    1.3856    0.0000 C   0  0  0  0  0  0  0  0  0  0  0  0
   -0.4693    2.3596    0.0000 H   0  0  0  0  0  0  0  0  0  0  0  0
    0.5911    2.9720    0.0000 H   0  0  0  0  0  0  0  0  0  0  0  0
   -0.0000    0.0000    0.0000 N   0  0  0  0  0  0  0  0  0  0  0  0
    0.7999   -1.3856    0.0000 C   0  0  0  0  0  0  0  0  0  0  0  0
    0.5911   -2.9720    0.0000 H   0  0  0  0  0  0  0  0  0  0  0  0
   -0.4693   -2.3596    0.0000 H   0  0  0  0  0  0  0  0  0  0  0  0
    2.4001   -1.3856    0.0000 C   0  0  0  0  0  0  0  0  0  0  0  0
    4.0000   -1.3856    0.0000 H   0  0  0  0  0  0  0  0  0  0  0  0
    3.2000   -2.7712    0.0000 H   0  0  0  0  0  0  0  0  0  0  0  0
    1.6001   -2.7712    0.0000 H   0  0  0  0  0  0  0  0  0  0  0  0
   -1.6000    0.0000    0.0000 C   0  0  0  0  0  0  0  0  0  0  0  0
   -2.4000    1.3856    0.0000 C   0  0  0  0  0  0  0  0  0  0  0  0
   -1.6000    2.7713    0.0000 H   0  0  0  0  0  0  0  0  0  0  0  0
   -4.0001    1.3856    0.0000 C   0  0  0  0  0  0  0  0  0  0  0  0
   -4.8000    2.7713    0.0000 H   0  0  0  0  0  0  0  0  0  0  0  0
   -4.8000    0.0000    0.0000 C   0  0  0  0  0  0  0  0  0  0  0  0
   -6.4000    0.0000    0.0000 H   0  0  0  0  0  0  0  0  0  0  0  0
   -4.0001   -1.3856    0.0000 C   0  0  0  0  0  0  0  0  0  0  0  0
   -4.8000   -2.7712    0.0000 H   0  0  0  0  0  0  0  0  0  0  0  0
   -2.4000   -1.3856    0.0000 C   0  0  0  0  0  0  0  0  0  0  0  0
   -1.6000   -2.7712    0.0000 H   0  0  0  0  0  0  0  0  0  0  0  0
  1  2  1  0  0  0  0
  1  3  1  0  0  0  0
  1  4  1  0  0  0  0
  1  5  1  0  0  0  0
  5  6  1  0  0  0  0
  5  7  1  0  0  0  0
  5  8  1  0  0  0  0
  8  9  1  0  0  0  0
  9 10  1  0  0  0  0
  9 11  1  0  0  0  0
  9 12  1  0  0  0  0
 12 13  1  0  0  0  0
 12 14  1  0  0  0  0
 12 15  1  0  0  0  0
  8 16  1  0  0  0  0
 16 17  1  0  0  0  0
 17 18  1  0  0  0  0
 17 19  2  0  0  0  0
 19 20  1  0  0  0  0
 19 21  1  0  0  0  0
 21 22  1  0  0  0  0
 21 23  2  0  0  0  0
 23 24  1  0  0  0  0
 23 25  1  0  0  0  0
 25 16  2  0  0  0  0
 25 26  1  0  0  0  0
M  END
> <ChemID>
100252

> <source_casrn>
91-66-7

> <CAS>
91-66-7

> <SMILES>
CCN(CC)c1ccccc1

> <NAME>
Benzenamine, N,N-diethyl-

> <preferred_name>
N,N-Diethylaniline

> <iupac>
N,N-diethylaniline

> <MPID>
100262

> <dsstox_substance_id>
DTXSID8021800

> <Canonical_QSARr>
CCN(CC)c1ccccc1

> <InChI_Code_QSARr>
InChI=1S/C10H15N/c1-3-11(4-2)10-8-6-5-7-9-10/h5-9H,3-4H2,1-2H3

> <InChI Key_QSARr>
GGSUCNLOZRCGPQ-UHFFFAOYSA-N

> <Salt_Solvent>
?

> <Ready_Biodeg>
0.0

$$$$
100256
  -INDIGO-08031722522D

 22 23  0  0  0  0  0  0  0  0999 V2000
   -0.0001   -0.0000    0.0000 C   0  0  0  0  0  0  0  0  0  0  0  0
    1.3856    0.8000    0.0000 C   0  0  0  0  0  0  0  0  0  0  0  0
    1.3856    2.4000    0.0000 H   0  0  0  0  0  0  0  0  0  0  0  0
    2.7713   -0.0000    0.0000 C   0  0  0  0  0  0  0  0  0  0  0  0
    4.1569    0.8000    0.0000 H   0  0  0  0  0  0  0  0  0  0  0  0
    2.7713   -1.6000    0.0000 C   0  0  0  0  0  0  0  0  0  0  0  0
    4.1569   -2.4000    0.0000 H   0  0  0  0  0  0  0  0  0  0  0  0
    1.3856   -2.4000    0.0000 C   0  0  0  0  0  0  0  0  0  0  0  0
    1.3856   -4.0000    0.0000 H   0  0  0  0  0  0  0  0  0  0  0  0
   -0.0001   -1.6000    0.0000 C   0  0  0  0  0  0  0  0  0  0  0  0
   -1.3857   -2.4000    0.0000 C   0  0  0  0  0  0  0  0  0  0  0  0
   -1.3857   -4.0000    0.0000 H   0  0  0  0  0  0  0  0  0  0  0  0
   -2.7712   -1.6000    0.0000 C   0  0  0  0  0  0  0  0  0  0  0  0
   -4.1569   -2.4000    0.0000 O   0  0  0  0  0  0  0  0  0  0  0  0
   -4.1569   -4.0000    0.0000 H   0  0  0  0  0  0  0  0  0  0  0  0
   -2.7712   -0.0000    0.0000 C   0  0  0  0  0  0  0  0  0  0  0  0
   -4.1569    0.8000    0.0000 C   0  0  0  0  0  0  0  0  0  0  0  0
   -4.1569    2.4000    0.0000 O   0  0  0  0  0  0  0  0  0  0  0  0
   -5.5425   -0.0000    0.0000 O   0  0  0  0  0  0  0  0  0  0  0  0
   -6.9282    0.8000    0.0000 H   0  0  0  0  0  0  0  0  0  0  0  0
   -1.3857    0.8000    0.0000 C   0  0  0  0  0  0  0  0  0  0  0  0
   -1.3856    2.4000    0.0000 H   0  0  0  0  0  0  0  0  0  0  0  0
  1  2  1  0  0  0  0
  2  3  1  0  0  0  0
  2  4  2  0  0  0  0
  4  5  1  0  0  0  0
  4  6  1  0  0  0  0
  6  7  1  0  0  0  0
  6  8  2  0  0  0  0
  8  9  1  0  0  0  0
  8 10  1  0  0  0  0
 10  1  1  0  0  0  0
 10 11  2  0  0  0  0
 11 12  1  0  0  0  0
 11 13  1  0  0  0  0
 13 14  1  0  0  0  0
 14 15  1  0  0  0  0
 13 16  2  0  0  0  0
 16 17  1  0  0  0  0
 17 18  2  0  0  0  0
 17 19  1  0  0  0  0
 19 20  1  0  0  0  0
 16 21  1  0  0  0  0
 21  1  2  0  0  0  0
 21 22  1  0  0  0  0
M  END
> <ChemID>
100256

> <source_casrn>
92-70-6

> <CAS>
92-70-6

> <SMILES>
Oc1cc2ccccc2cc1C(O)=O

> <NAME>
2-Naphthalenecarboxylic acid, 3-hydroxy-

> <preferred_name>
3-Hydroxy-2-naphthoic acid

> <iupac>
3-hydroxynaphthalene-2-carboxylic acid

> <MPID>
100266

> <dsstox_substance_id>
DTXSID3026560

> <Canonical_QSARr>
Oc1cc2ccccc2cc1C(O)=O

> <InChI_Code_QSARr>
InChI=1S/C11H8O3/c12-10-6-8-4-2-1-3-7(8)5-9(10)11(13)14/h1-6,12H,(H,13,14)

> <InChI Key_QSARr>
ALKYHXVLJMQRLQ-UHFFFAOYSA-N

> <Salt_Solvent>
?

> <Ready_Biodeg>
0.0

$$$$
100260
  -INDIGO-08031722522D

 22 23  0  0  0  0  0  0  0  0999 V2000
   -0.0001    0.0000    0.0000 C   0  0  0  0  0  0  0  0  0  0  0  0
    1.6001   -0.0000    0.0000 C   0  0  0  0  0  0  0  0  0  0  0  0
    2.4001   -1.3856    0.0000 C   0  0  0  0  0  0  0  0  0  0  0  0
    1.6001   -2.7713    0.0000 H   0  0  0  0  0  0  0  0  0  0  0  0
    4.0000   -1.3856    0.0000 C   0  0  0  0  0  0  0  0  0  0  0  0
    4.8000   -2.7713    0.0000 H   0  0  0  0  0  0  0  0  0  0  0  0
    4.8000    0.0000    0.0000 C   0  0  0  0  0  0  0  0  0  0  0  0
    6.4000    0.0000    0.0000 Br  0  0  0  0  0  0  0  0  0  0  0  0
    4.0000    1.3856    0.0000 C   0  0  0  0  0  0  0  0  0  0  0  0
    4.8000    2.7713    0.0000 H   0  0  0  0  0  0  0  0  0  0  0  0
    2.4001    1.3856    0.0000 C   0  0  0  0  0  0  0  0  0  0  0  0
    1.6001    2.7713    0.0000 H   0  0  0  0  0  0  0  0  0  0  0  0
   -0.8001    1.3856    0.0000 C   0  0  0  0  0  0  0  0  0  0  0  0
   -0.0001    2.7713    0.0000 H   0  0  0  0  0  0  0  0  0  0  0  0
   -2.4000    1.3856    0.0000 C   0  0  0  0  0  0  0  0  0  0  0  0
   -3.2000    2.7713    0.0000 H   0  0  0  0  0  0  0  0  0  0  0  0
   -3.2000    0.0000    0.0000 C   0  0  0  0  0  0  0  0  0  0  0  0
   -4.8000   -0.0000    0.0000 Br  0  0  0  0  0  0  0  0  0  0  0  0
   -2.4000   -1.3856    0.0000 C   0  0  0  0  0  0  0  0  0  0  0  0
   -3.2000   -2.7713    0.0000 H   0  0  0  0  0  0  0  0  0  0  0  0
   -0.8001   -1.3856    0.0000 C   0  0  0  0  0  0  0  0  0  0  0  0
   -0.0001   -2.7713    0.0000 H   0  0  0  0  0  0  0  0  0  0  0  0
  1  2  1  0  0  0  0
  2  3  1  0  0  0  0
  3  4  1  0  0  0  0
  3  5  2  0  0  0  0
  5  6  1  0  0  0  0
  5  7  1  0  0  0  0
  7  8  1  0  0  0  0
  7  9  2  0  0  0  0
  9 10  1  0  0  0  0
  9 11  1  0  0  0  0
 11  2  2  0  0  0  0
 11 12  1  0  0  0  0
  1 13  1  0  0  0  0
 13 14  1  0  0  0  0
 13 15  2  0  0  0  0
 15 16  1  0  0  0  0
 15 17  1  0  0  0  0
 17 18  1  0  0  0  0
 17 19  2  0  0  0  0
 19 20  1  0  0  0  0
 19 21  1  0  0  0  0
 21  1  2  0  0  0  0
 21 22  1  0  0  0  0
M  END
> <ChemID>
100260

> <source_casrn>
92-86-4

> <CAS>
92-86-4

> <SMILES>
Brc1ccc(cc1)-c1ccc(Br)cc1

> <NAME>
1,1'-Biphenyl, 4,4'-dibromo-

> <preferred_name>
1,1'-Biphenyl, 4,4'-dibromo-

> <iupac>
1-bromo-4-(4-bromophenyl)benzene

> <MPID>
100270

> <dsstox_substance_id>
DTXSID1059072

> <Canonical_QSARr>
Brc1ccc(cc1)-c1ccc(Br)cc1

> <InChI_Code_QSARr>
InChI=1S/C12H8Br2/c13-11-5-1-9(2-6-11)10-3-7-12(14)8-4-10/h1-8H

> <InChI Key_QSARr>
HQJQYILBCQPYBI-UHFFFAOYSA-N

> <Salt_Solvent>
?

> <Ready_Biodeg>
0.0

$$$$
100264
  -INDIGO-08031722522D

 27 27  0  0  0  0  0  0  0  0999 V2000
    3.2000    2.7713    0.0000 O   0  0  0  0  0  0  0  0  0  0  0  0
    2.4000    4.1570    0.0000 C   0  0  0  0  0  0  0  0  0  0  0  0
    3.2000    5.5426    0.0000 H   0  0  0  0  0  0  0  0  0  0  0  0
    1.6000    5.5426    0.0000 H   0  0  0  0  0  0  0  0  0  0  0  0
    4.0000    4.1570    0.0000 H   0  0  0  0  0  0  0  0  0  0  0  0
    2.4000    1.3857    0.0000 C   0  0  0  0  0  0  0  0  0  0  0  0
    0.8000    1.3857    0.0000 C   0  0  0  0  0  0  0  0  0  0  0  0
    0.0000    2.7713    0.0000 H   0  0  0  0  0  0  0  0  0  0  0  0
    0.0000    0.0000    0.0000 C   0  0  0  0  0  0  0  0  0  0  0  0
   -1.6000    0.0000    0.0000 C   0  0  0  0  0  0  0  0  0  0  0  0
   -2.8693    0.9740    0.0000 H   0  0  0  0  0  0  0  0  0  0  0  0
   -1.8089    1.5863    0.0000 H   0  0  0  0  0  0  0  0  0  0  0  0
   -2.4000   -1.3856    0.0000 C   0  0  0  0  0  0  0  0  0  0  0  0
   -1.6000   -2.7713    0.0000 H   0  0  0  0  0  0  0  0  0  0  0  0
   -4.0000   -1.3856    0.0000 C   0  0  0  0  0  0  0  0  0  0  0  0
   -4.8000   -2.7713    0.0000 H   0  0  0  0  0  0  0  0  0  0  0  0
   -4.8000    0.0000    0.0000 H   0  0  0  0  0  0  0  0  0  0  0  0
    0.8000   -1.3856    0.0000 C   0  0  0  0  0  0  0  0  0  0  0  0
    0.0000   -2.7713    0.0000 H   0  0  0  0  0  0  0  0  0  0  0  0
    2.4000   -1.3856    0.0000 C   0  0  0  0  0  0  0  0  0  0  0  0
    3.2000   -2.7713    0.0000 H   0  0  0  0  0  0  0  0  0  0  0  0
    3.2000    0.0000    0.0000 C   0  0  0  0  0  0  0  0  0  0  0  0
    4.8000    0.0000    0.0000 O   0  0  0  0  0  0  0  0  0  0  0  0
    5.6000   -1.3856    0.0000 C   0  0  0  0  0  0  0  0  0  0  0  0
    7.2000   -1.3857    0.0000 H   0  0  0  0  0  0  0  0  0  0  0  0
    6.4000   -2.7713    0.0000 H   0  0  0  0  0  0  0  0  0  0  0  0
    6.4000    0.0000    0.0000 H   0  0  0  0  0  0  0  0  0  0  0  0
  1  2  1  0  0  0  0
  2  3  1  0  0  0  0
  2  4  1  0  0  0  0
  2  5  1  0  0  0  0
  1  6  1  0  0  0  0
  6  7  1  0  0  0  0
  7  8  1  0  0  0  0
  7  9  2  0  0  0  0
  9 10  1  0  0  0  0
 10 11  1  0  0  0  0
 10 12  1  0  0  0  0
 10 13  1  0  0  0  0
 13 14  1  0  0  0  0
 13 15  2  0  0  0  0
 15 16  1  0  0  0  0
 15 17  1  0  0  0  0
  9 18  1  0  0  0  0
 18 19  1  0  0  0  0
 18 20  2  0  0  0  0
 20 21  1  0  0  0  0
 20 22  1  0  0  0  0
 22  6  2  0  0  0  0
 22 23  1  0  0  0  0
 23 24  1  0  0  0  0
 24 25  1  0  0  0  0
 24 26  1  0  0  0  0
 24 27  1  0  0  0  0
M  END
> <ChemID>
100264

> <source_casrn>
93-15-2

> <CAS>
93-15-2

> <SMILES>
COc1ccc(CC=C)cc1OC

> <NAME>
Benzene, 1,2-dimethoxy-4-(2-propenyl)-

> <preferred_name>
Methyleugenol

> <iupac>
C11H14O2

> <MPID>
100274

> <dsstox_substance_id>
DTXSID5025607

> <Canonical_QSARr>
COc1ccc(CC=C)cc1OC

> <InChI_Code_QSARr>
InChI=1S/C11H14O2/c1-4-5-9-6-7-10(12-2)11(8-9)13-3/h4,6-8H,1,5H2,2-3H3

> <InChI Key_QSARr>
ZYEMGPIYFIJGTP-UHFFFAOYSA-N

> <Salt_Solvent>
?

> <Ready_Biodeg>
1.0

$$$$
100268
  -INDIGO-08031722522D

 22 22  0  0  0  0  0  0  0  0999 V2000
   -4.1569    0.8000    0.0000 C   0  0  0  0  0  0  0  0  0  0  0  0
   -4.1569    2.4000    0.0000 H   0  0  0  0  0  0  0  0  0  0  0  0
   -5.5425   -0.0000    0.0000 C   0  0  0  0  0  0  0  0  0  0  0  0
   -6.9282    0.8000    0.0000 H   0  0  0  0  0  0  0  0  0  0  0  0
   -5.5425   -1.6000    0.0000 C   0  0  0  0  0  0  0  0  0  0  0  0
   -6.9282   -2.4000    0.0000 H   0  0  0  0  0  0  0  0  0  0  0  0
   -4.1569   -2.4000    0.0000 C   0  0  0  0  0  0  0  0  0  0  0  0
   -4.1569   -4.0000    0.0000 H   0  0  0  0  0  0  0  0  0  0  0  0
   -2.7712   -1.6000    0.0000 C   0  0  0  0  0  0  0  0  0  0  0  0
   -1.3856   -2.4000    0.0000 H   0  0  0  0  0  0  0  0  0  0  0  0
   -2.7712   -0.0000    0.0000 C   0  0  0  0  0  0  0  0  0  0  0  0
   -1.3856    0.8000    0.0000 C   0  0  0  0  0  0  0  0  0  0  0  0
   -1.3856    2.4000    0.0000 O   0  0  0  0  0  0  0  0  0  0  0  0
   -0.0001   -0.0000    0.0000 C   0  0  0  0  0  0  0  0  0  0  0  0
    0.6123   -1.4782    0.0000 H   0  0  0  0  0  0  0  0  0  0  0  0
   -0.6122   -1.4782    0.0000 H   0  0  0  0  0  0  0  0  0  0  0  0
    1.3856    0.8000    0.0000 C   0  0  0  0  0  0  0  0  0  0  0  0
    1.3856    2.4000    0.0000 O   0  0  0  0  0  0  0  0  0  0  0  0
    2.7713   -0.0000    0.0000 C   0  0  0  0  0  0  0  0  0  0  0  0
    4.1569   -0.8000    0.0000 H   0  0  0  0  0  0  0  0  0  0  0  0
    4.1569    0.8000    0.0000 H   0  0  0  0  0  0  0  0  0  0  0  0
    2.7713   -1.6000    0.0000 H   0  0  0  0  0  0  0  0  0  0  0  0
  1  2  1  0  0  0  0
  1  3  1  0  0  0  0
  3  4  1  0  0  0  0
  3  5  2  0  0  0  0
  5  6  1  0  0  0  0
  5  7  1  0  0  0  0
  7  8  1  0  0  0  0
  7  9  2  0  0  0  0
  9 10  1  0  0  0  0
  9 11  1  0  0  0  0
 11  1  2  0  0  0  0
 11 12  1  0  0  0  0
 12 13  2  0  0  0  0
 12 14  1  0  0  0  0
 14 15  1  0  0  0  0
 14 16  1  0  0  0  0
 14 17  1  0  0  0  0
 17 18  2  0  0  0  0
 17 19  1  0  0  0  0
 19 20  1  0  0  0  0
 19 21  1  0  0  0  0
 19 22  1  0  0  0  0
M  END
> <ChemID>
100268

> <source_casrn>
93-91-4

> <CAS>
93-91-4

> <SMILES>
CC(=O)CC(=O)c1ccccc1

> <NAME>
1,3-Butanedione, 1-phenyl-

> <preferred_name>
1-Benzoylacetone

> <iupac>
1-phenylbutane-1,3-dione

> <MPID>
100278

> <dsstox_substance_id>
DTXSID3021803

> <Canonical_QSARr>
CC(=O)CC(=O)c1ccccc1

> <InChI_Code_QSARr>
InChI=1S/C10H10O2/c1-8(11)7-10(12)9-5-3-2-4-6-9/h2-6H,7H2,1H3

> <InChI Key_QSARr>
CVBUKMMMRLOKQR-UHFFFAOYSA-N

> <Salt_Solvent>
?

> <Ready_Biodeg>
1.0

$$$$
100273
  -INDIGO-08031722522D

 14 15  0  0  0  0  0  0  0  0999 V2000
    2.4000    1.3856    0.0000 C   0  0  0  0  0  0  0  0  0  0  0  0
    3.2000    2.7713    0.0000 H   0  0  0  0  0  0  0  0  0  0  0  0
    3.2000   -0.0000    0.0000 C   0  0  0  0  0  0  0  0  0  0  0  0
    4.8000   -0.0000    0.0000 H   0  0  0  0  0  0  0  0  0  0  0  0
    2.4000   -1.3856    0.0000 C   0  0  0  0  0  0  0  0  0  0  0  0
    3.2000   -2.7713    0.0000 H   0  0  0  0  0  0  0  0  0  0  0  0
    0.8000   -1.3856    0.0000 C   0  0  0  0  0  0  0  0  0  0  0  0
   -0.0000    0.0000    0.0000 C   0  0  0  0  0  0  0  0  0  0  0  0
   -1.5650   -0.3327    0.0000 S   0  0  0  0  0  0  0  0  0  0  0  0
   -1.7322   -1.9239    0.0000 C   0  0  0  0  0  0  0  0  0  0  0  0
   -3.1179   -2.7239    0.0000 H   0  0  0  0  0  0  0  0  0  0  0  0
   -0.2706   -2.5746    0.0000 N   0  0  0  0  0  0  0  0  0  0  0  0
    0.8000    1.3856    0.0000 C   0  0  0  0  0  0  0  0  0  0  0  0
   -0.0000    2.7713    0.0000 H   0  0  0  0  0  0  0  0  0  0  0  0
  1  2  1  0  0  0  0
  1  3  1  0  0  0  0
  3  4  1  0  0  0  0
  3  5  2  0  0  0  0
  5  6  1  0  0  0  0
  5  7  1  0  0  0  0
  7  8  2  0  0  0  0
  8  9  1  0  0  0  0
  9 10  1  0  0  0  0
 10 11  1  0  0  0  0
 10 12  2  0  0  0  0
 12  7  1  0  0  0  0
  8 13  1  0  0  0  0
 13  1  2  0  0  0  0
 13 14  1  0  0  0  0
M  END
> <ChemID>
100273

> <source_casrn>
95-16-9

> <CAS>
95-16-9

> <SMILES>
c1[n]c2ccccc2[s]1

> <NAME>
Benzothiazole

> <preferred_name>
Benzothiazole

> <iupac>
1,3-benzothiazole

> <MPID>
100282

> <dsstox_substance_id>
DTXSID7024586

> <Canonical_QSARr>
c1[n]c2ccccc2[s]1

> <InChI_Code_QSARr>
InChI=1S/C7H5NS/c1-2-4-7-6(3-1)8-5-9-7/h1-5H

> <InChI Key_QSARr>
IOJUPLGTWVMSFF-UHFFFAOYSA-N

> <Salt_Solvent>
?

> <Ready_Biodeg>
0.0

$$$$
100277
  -INDIGO-08031722522D

 15 15  0  0  0  0  0  0  0  0999 V2000
    0.0000   -0.0000    0.0000 C   0  0  0  0  0  0  0  0  0  0  0  0
   -0.8001    1.3856    0.0000 C   0  0  0  0  0  0  0  0  0  0  0  0
    0.0000    2.7713    0.0000 H   0  0  0  0  0  0  0  0  0  0  0  0
   -2.4001    1.3856    0.0000 C   0  0  0  0  0  0  0  0  0  0  0  0
   -3.2000    2.7713    0.0000 H   0  0  0  0  0  0  0  0  0  0  0  0
   -3.2000   -0.0000    0.0000 C   0  0  0  0  0  0  0  0  0  0  0  0
   -4.8000   -0.0000    0.0000 H   0  0  0  0  0  0  0  0  0  0  0  0
   -2.4001   -1.3856    0.0000 C   0  0  0  0  0  0  0  0  0  0  0  0
   -3.2000   -2.7713    0.0000 H   0  0  0  0  0  0  0  0  0  0  0  0
   -0.8001   -1.3856    0.0000 C   0  0  0  0  0  0  0  0  0  0  0  0
    0.0000   -2.7713    0.0000 Cl  0  0  0  0  0  0  0  0  0  0  0  0
    1.6000   -0.0000    0.0000 C   0  0  0  0  0  0  0  0  0  0  0  0
    3.2000   -0.0000    0.0000 H   0  0  0  0  0  0  0  0  0  0  0  0
    2.4001   -1.3856    0.0000 H   0  0  0  0  0  0  0  0  0  0  0  0
    2.4001    1.3856    0.0000 H   0  0  0  0  0  0  0  0  0  0  0  0
  1  2  1  0  0  0  0
  2  3  1  0  0  0  0
  2  4  2  0  0  0  0
  4  5  1  0  0  0  0
  4  6  1  0  0  0  0
  6  7  1  0  0  0  0
  6  8  2  0  0  0  0
  8  9  1  0  0  0  0
  8 10  1  0  0  0  0
 10  1  2  0  0  0  0
 10 11  1  0  0  0  0
  1 12  1  0  0  0  0
 12 13  1  0  0  0  0
 12 14  1  0  0  0  0
 12 15  1  0  0  0  0
M  END
> <ChemID>
100277

> <source_casrn>
95-49-8

> <CAS>
95-49-8

> <SMILES>
Cc1ccccc1Cl

> <NAME>
Benzene, 1-chloro-2-methyl-

> <preferred_name>
2-Chlorotoluene

> <iupac>
1-chloro-2-methylbenzene

> <MPID>
100286

> <dsstox_substance_id>
DTXSID8023977

> <Canonical_QSARr>
Cc1ccccc1Cl

> <InChI_Code_QSARr>
InChI=1S/C7H7Cl/c1-6-4-2-3-5-7(6)8/h2-5H,1H3

> <InChI Key_QSARr>
IBSQPLPBRSHTTG-UHFFFAOYSA-N

> <Salt_Solvent>
?

> <Ready_Biodeg>
0.0

$$$$
100281
  -INDIGO-08031722522D

 16 16  0  0  0  0  0  0  0  0999 V2000
   -1.3856    0.8000    0.0000 N   0  0  0  0  0  0  0  0  0  0  0  0
   -1.3856    2.4000    0.0000 H   0  0  0  0  0  0  0  0  0  0  0  0
   -2.7713   -0.0000    0.0000 H   0  0  0  0  0  0  0  0  0  0  0  0
    0.0000   -0.0000    0.0000 C   0  0  0  0  0  0  0  0  0  0  0  0
    0.0000   -1.6000    0.0000 C   0  0  0  0  0  0  0  0  0  0  0  0
   -1.3856   -2.4000    0.0000 N   0  0  0  0  0  0  0  0  0  0  0  0
   -1.3856   -4.0000    0.0000 H   0  0  0  0  0  0  0  0  0  0  0  0
   -2.7713   -1.6000    0.0000 H   0  0  0  0  0  0  0  0  0  0  0  0
    1.3856   -2.4000    0.0000 C   0  0  0  0  0  0  0  0  0  0  0  0
    1.3856   -4.0000    0.0000 H   0  0  0  0  0  0  0  0  0  0  0  0
    2.7713   -1.6000    0.0000 C   0  0  0  0  0  0  0  0  0  0  0  0
    4.1569   -2.4000    0.0000 H   0  0  0  0  0  0  0  0  0  0  0  0
    2.7713   -0.0000    0.0000 C   0  0  0  0  0  0  0  0  0  0  0  0
    4.1569    0.8000    0.0000 H   0  0  0  0  0  0  0  0  0  0  0  0
    1.3856    0.8000    0.0000 C   0  0  0  0  0  0  0  0  0  0  0  0
    1.3856    2.4000    0.0000 H   0  0  0  0  0  0  0  0  0  0  0  0
  1  2  1  0  0  0  0
  1  3  1  0  0  0  0
  1  4  1  0  0  0  0
  4  5  1  0  0  0  0
  5  6  1  0  0  0  0
  6  7  1  0  0  0  0
  6  8  1  0  0  0  0
  5  9  2  0  0  0  0
  9 10  1  0  0  0  0
  9 11  1  0  0  0  0
 11 12  1  0  0  0  0
 11 13  2  0  0  0  0
 13 14  1  0  0  0  0
 13 15  1  0  0  0  0
 15  4  2  0  0  0  0
 15 16  1  0  0  0  0
M  END
> <ChemID>
100281

> <source_casrn>
95-54-5

> <CAS>
95-54-5

> <SMILES>
Nc1ccccc1N

> <NAME>
1,2-Benzenediamine

> <preferred_name>
1,2-Phenylenediamine

> <iupac>
benzene-1,2-diamine

> <MPID>
100290

> <dsstox_substance_id>
DTXSID3025881

> <Canonical_QSARr>
Nc1ccccc1N

> <InChI_Code_QSARr>
InChI=1S/C6H8N2/c7-5-3-1-2-4-6(5)8/h1-4H,7-8H2

> <InChI Key_QSARr>
GEYOCULIXLDCMW-UHFFFAOYSA-N

> <Salt_Solvent>
?

> <Ready_Biodeg>
0.0

$$$$
100285
  -INDIGO-08031722522D

 21 21  0  0  0  0  0  0  0  0999 V2000
    1.3857    0.8000    0.0000 C   0  0  0  0  0  0  0  0  0  0  0  0
    2.7713    1.6000    0.0000 H   0  0  0  0  0  0  0  0  0  0  0  0
    1.3857    2.4000    0.0000 H   0  0  0  0  0  0  0  0  0  0  0  0
    2.7713   -0.0000    0.0000 H   0  0  0  0  0  0  0  0  0  0  0  0
    0.0000   -0.0000    0.0000 C   0  0  0  0  0  0  0  0  0  0  0  0
    0.0000   -1.6000    0.0000 C   0  0  0  0  0  0  0  0  0  0  0  0
    1.3857   -2.4000    0.0000 C   0  0  0  0  0  0  0  0  0  0  0  0
    2.7713   -3.2000    0.0000 H   0  0  0  0  0  0  0  0  0  0  0  0
    1.3857   -4.0000    0.0000 H   0  0  0  0  0  0  0  0  0  0  0  0
    2.7713   -1.6000    0.0000 H   0  0  0  0  0  0  0  0  0  0  0  0
   -1.3856   -2.4000    0.0000 C   0  0  0  0  0  0  0  0  0  0  0  0
   -1.3856   -4.0000    0.0000 H   0  0  0  0  0  0  0  0  0  0  0  0
   -2.7713   -1.6000    0.0000 C   0  0  0  0  0  0  0  0  0  0  0  0
   -4.1570   -2.4000    0.0000 H   0  0  0  0  0  0  0  0  0  0  0  0
   -2.7713   -0.0000    0.0000 C   0  0  0  0  0  0  0  0  0  0  0  0
   -4.1569    0.8000    0.0000 C   0  0  0  0  0  0  0  0  0  0  0  0
   -5.5426    1.6000    0.0000 H   0  0  0  0  0  0  0  0  0  0  0  0
   -5.5426   -0.0000    0.0000 H   0  0  0  0  0  0  0  0  0  0  0  0
   -4.1569    2.4000    0.0000 H   0  0  0  0  0  0  0  0  0  0  0  0
   -1.3856    0.8000    0.0000 C   0  0  0  0  0  0  0  0  0  0  0  0
   -1.3856    2.4000    0.0000 H   0  0  0  0  0  0  0  0  0  0  0  0
  1  2  1  0  0  0  0
  1  3  1  0  0  0  0
  1  4  1  0  0  0  0
  1  5  1  0  0  0  0
  5  6  1  0  0  0  0
  6  7  1  0  0  0  0
  7  8  1  0  0  0  0
  7  9  1  0  0  0  0
  7 10  1  0  0  0  0
  6 11  2  0  0  0  0
 11 12  1  0  0  0  0
 11 13  1  0  0  0  0
 13 14  1  0  0  0  0
 13 15  2  0  0  0  0
 15 16  1  0  0  0  0
 16 17  1  0  0  0  0
 16 18  1  0  0  0  0
 16 19  1  0  0  0  0
 15 20  1  0  0  0  0
 20  5  2  0  0  0  0
 20 21  1  0  0  0  0
M  END
> <ChemID>
100285

> <source_casrn>
95-63-6

> <CAS>
95-63-6

> <SMILES>
Cc1cc(C)c(C)cc1

> <NAME>
Benzene, 1,2,4-trimethyl-

> <preferred_name>
1,2,4-Trimethylbenzene

> <iupac>
1,2,4-trimethylbenzene

> <MPID>
100294

> <dsstox_substance_id>
DTXSID6021402

> <Canonical_QSARr>
Cc1cc(C)c(C)cc1

> <InChI_Code_QSARr>
InChI=1S/C9H12/c1-7-4-5-8(2)9(3)6-7/h4-6H,1-3H3

> <InChI Key_QSARr>
GWHJZXXIDMPWGX-UHFFFAOYSA-N

> <Salt_Solvent>
?

> <Ready_Biodeg>
0.0

$$$$
100289
  -INDIGO-08031722522D

 17 17  0  0  0  0  0  0  0  0999 V2000
   -1.3856    2.4000    0.0000 N   0  0  0  0  0  0  0  0  0  0  0  0
   -1.3856    4.0000    0.0000 H   0  0  0  0  0  0  0  0  0  0  0  0
   -2.7713    1.6000    0.0000 H   0  0  0  0  0  0  0  0  0  0  0  0
    0.0000    1.6000    0.0000 C   0  0  0  0  0  0  0  0  0  0  0  0
    0.0000    0.0000    0.0000 C   0  0  0  0  0  0  0  0  0  0  0  0
   -1.3856   -0.8000    0.0000 C   0  0  0  0  0  0  0  0  0  0  0  0
   -2.7713   -1.6000    0.0000 H   0  0  0  0  0  0  0  0  0  0  0  0
   -1.3856   -2.4000    0.0000 H   0  0  0  0  0  0  0  0  0  0  0  0
   -2.7713    0.0000    0.0000 H   0  0  0  0  0  0  0  0  0  0  0  0
    1.3856   -0.8000    0.0000 C   0  0  0  0  0  0  0  0  0  0  0  0
    1.3856   -2.4000    0.0000 H   0  0  0  0  0  0  0  0  0  0  0  0
    2.7713    0.0000    0.0000 C   0  0  0  0  0  0  0  0  0  0  0  0
    4.1569   -0.8000    0.0000 Cl  0  0  0  0  0  0  0  0  0  0  0  0
    2.7713    1.6000    0.0000 C   0  0  0  0  0  0  0  0  0  0  0  0
    4.1569    2.4000    0.0000 H   0  0  0  0  0  0  0  0  0  0  0  0
    1.3856    2.4000    0.0000 C   0  0  0  0  0  0  0  0  0  0  0  0
    1.3856    4.0000    0.0000 H   0  0  0  0  0  0  0  0  0  0  0  0
  1  2  1  0  0  0  0
  1  3  1  0  0  0  0
  1  4  1  0  0  0  0
  4  5  1  0  0  0  0
  5  6  1  0  0  0  0
  6  7  1  0  0  0  0
  6  8  1  0  0  0  0
  6  9  1  0  0  0  0
  5 10  2  0  0  0  0
 10 11  1  0  0  0  0
 10 12  1  0  0  0  0
 12 13  1  0  0  0  0
 12 14  2  0  0  0  0
 14 15  1  0  0  0  0
 14 16  1  0  0  0  0
 16  4  2  0  0  0  0
 16 17  1  0  0  0  0
M  END
> <ChemID>
100289

> <source_casrn>
95-69-2

> <CAS>
95-69-2

> <SMILES>
Cc1cc(Cl)ccc1N

> <NAME>
Benzenamine, 4-chloro-2-methyl-

> <preferred_name>
4-Chloro-2-methylaniline

> <iupac>
4-chloro-2-methylaniline

> <MPID>
100298

> <dsstox_substance_id>
DTXSID1041508

> <Canonical_QSARr>
Cc1cc(Cl)ccc1N

> <InChI_Code_QSARr>
InChI=1S/C7H8ClN/c1-5-4-6(8)2-3-7(5)9/h2-4H,9H2,1H3

> <InChI Key_QSARr>
CXNVOWPRHWWCQR-UHFFFAOYSA-N

> <Salt_Solvent>
?

> <Ready_Biodeg>
0.0

$$$$
100293
  -INDIGO-08031722522D

 20 20  0  0  0  0  0  0  0  0999 V2000
   -1.3856    2.4000    0.0000 N   0  0  0  0  0  0  0  0  0  0  0  0
   -1.3856    4.0000    0.0000 H   0  0  0  0  0  0  0  0  0  0  0  0
   -2.7713    1.6000    0.0000 H   0  0  0  0  0  0  0  0  0  0  0  0
    0.0000    1.6000    0.0000 C   0  0  0  0  0  0  0  0  0  0  0  0
    0.0000    0.0000    0.0000 C   0  0  0  0  0  0  0  0  0  0  0  0
   -1.3857   -0.8000    0.0000 C   0  0  0  0  0  0  0  0  0  0  0  0
   -2.7713   -1.6000    0.0000 H   0  0  0  0  0  0  0  0  0  0  0  0
   -1.3857   -2.4000    0.0000 H   0  0  0  0  0  0  0  0  0  0  0  0
   -2.7713    0.0000    0.0000 H   0  0  0  0  0  0  0  0  0  0  0  0
    1.3857   -0.8000    0.0000 C   0  0  0  0  0  0  0  0  0  0  0  0
    1.3857   -2.4000    0.0000 H   0  0  0  0  0  0  0  0  0  0  0  0
    2.7713    0.0000    0.0000 C   0  0  0  0  0  0  0  0  0  0  0  0
    4.1570   -0.8000    0.0000 H   0  0  0  0  0  0  0  0  0  0  0  0
    2.7713    1.6000    0.0000 C   0  0  0  0  0  0  0  0  0  0  0  0
    4.1570    2.4000    0.0000 C   0  0  0  0  0  0  0  0  0  0  0  0
    5.5426    3.2000    0.0000 H   0  0  0  0  0  0  0  0  0  0  0  0
    5.5426    1.6000    0.0000 H   0  0  0  0  0  0  0  0  0  0  0  0
    4.1570    4.0000    0.0000 H   0  0  0  0  0  0  0  0  0  0  0  0
    1.3857    2.4000    0.0000 C   0  0  0  0  0  0  0  0  0  0  0  0
    1.3856    4.0000    0.0000 H   0  0  0  0  0  0  0  0  0  0  0  0
  1  2  1  0  0  0  0
  1  3  1  0  0  0  0
  1  4  1  0  0  0  0
  4  5  1  0  0  0  0
  5  6  1  0  0  0  0
  6  7  1  0  0  0  0
  6  8  1  0  0  0  0
  6  9  1  0  0  0  0
  5 10  2  0  0  0  0
 10 11  1  0  0  0  0
 10 12  1  0  0  0  0
 12 13  1  0  0  0  0
 12 14  2  0  0  0  0
 14 15  1  0  0  0  0
 15 16  1  0  0  0  0
 15 17  1  0  0  0  0
 15 18  1  0  0  0  0
 14 19  1  0  0  0  0
 19  4  2  0  0  0  0
 19 20  1  0  0  0  0
M  END
> <ChemID>
100293

> <source_casrn>
95-78-3

> <CAS>
95-78-3

> <SMILES>
Cc1cc(N)c(C)cc1

> <NAME>
Benzenamine, 2,5-dimethyl-

> <preferred_name>
2,5-Dimethylaniline

> <iupac>
2,5-dimethylaniline

> <MPID>
100302

> <dsstox_substance_id>
DTXSID3026306

> <Canonical_QSARr>
Cc1cc(N)c(C)cc1

> <InChI_Code_QSARr>
InChI=1S/C8H11N/c1-6-3-4-7(2)8(9)5-6/h3-5H,9H2,1-2H3

> <InChI Key_QSARr>
VOWZNBNDMFLQGM-UHFFFAOYSA-N

> <Salt_Solvent>
?

> <Ready_Biodeg>
0.0

$$$$
100297
  -INDIGO-08031722522D

 12 12  0  0  0  0  0  0  0  0999 V2000
    0.8000    1.3856    0.0000 Cl  0  0  0  0  0  0  0  0  0  0  0  0
   -0.0000   -0.0000    0.0000 C   0  0  0  0  0  0  0  0  0  0  0  0
    0.8000   -1.3857    0.0000 C   0  0  0  0  0  0  0  0  0  0  0  0
    2.4000   -1.3857    0.0000 H   0  0  0  0  0  0  0  0  0  0  0  0
   -0.0000   -2.7713    0.0000 C   0  0  0  0  0  0  0  0  0  0  0  0
    0.8000   -4.1569    0.0000 Cl  0  0  0  0  0  0  0  0  0  0  0  0
   -1.6000   -2.7713    0.0000 C   0  0  0  0  0  0  0  0  0  0  0  0
   -2.4000   -4.1569    0.0000 Cl  0  0  0  0  0  0  0  0  0  0  0  0
   -2.4000   -1.3856    0.0000 C   0  0  0  0  0  0  0  0  0  0  0  0
   -4.0000   -1.3856    0.0000 H   0  0  0  0  0  0  0  0  0  0  0  0
   -1.6000   -0.0000    0.0000 C   0  0  0  0  0  0  0  0  0  0  0  0
   -2.4000    1.3856    0.0000 Cl  0  0  0  0  0  0  0  0  0  0  0  0
  1  2  1  0  0  0  0
  2  3  1  0  0  0  0
  3  4  1  0  0  0  0
  3  5  2  0  0  0  0
  5  6  1  0  0  0  0
  5  7  1  0  0  0  0
  7  8  1  0  0  0  0
  7  9  2  0  0  0  0
  9 10  1  0  0  0  0
  9 11  1  0  0  0  0
 11  2  2  0  0  0  0
 11 12  1  0  0  0  0
M  END
> <ChemID>
100297

> <source_casrn>
95-94-3

> <CAS>
95-94-3

> <SMILES>
Clc1cc(Cl)c(Cl)cc1Cl

> <NAME>
Benzene, 1,2,4,5-tetrachloro-

> <preferred_name>
1,2,4,5-Tetrachlorobenzene

> <iupac>
1,2,4,5-tetrachlorobenzene

> <MPID>
100306

> <dsstox_substance_id>
DTXSID7024320

> <Canonical_QSARr>
Clc1cc(Cl)c(Cl)cc1Cl

> <InChI_Code_QSARr>
InChI=1S/C6H2Cl4/c7-3-1-4(8)6(10)2-5(3)9/h1-2H

> <InChI Key_QSARr>
JHBKHLUZVFWLAG-UHFFFAOYSA-N

> <Salt_Solvent>
?

> <Ready_Biodeg>
0.0

$$$$
100301
  -INDIGO-08031722522D

 11 10  0  0  0  0  0  0  0  0999 V2000
   -0.6123   -1.4782    0.0000 Cl  0  0  0  0  0  0  0  0  0  0  0  0
    0.0000    0.0000    0.0000 C   0  0  0  0  0  0  0  0  0  0  0  0
    0.6123   -1.4782    0.0000 H   0  0  0  0  0  0  0  0  0  0  0  0
   -1.3856    0.8000    0.0000 C   0  0  0  0  0  0  0  0  0  0  0  0
   -2.7713    1.6000    0.0000 H   0  0  0  0  0  0  0  0  0  0  0  0
   -2.7713    0.0000    0.0000 H   0  0  0  0  0  0  0  0  0  0  0  0
   -1.3856    2.4000    0.0000 Cl  0  0  0  0  0  0  0  0  0  0  0  0
    1.3856    0.8000    0.0000 C   0  0  0  0  0  0  0  0  0  0  0  0
    2.7713    1.6000    0.0000 H   0  0  0  0  0  0  0  0  0  0  0  0
    2.7713    0.0000    0.0000 H   0  0  0  0  0  0  0  0  0  0  0  0
    1.3856    2.4000    0.0000 Cl  0  0  0  0  0  0  0  0  0  0  0  0
  1  2  1  0  0  0  0
  2  3  1  0  0  0  0
  2  4  1  0  0  0  0
  4  5  1  0  0  0  0
  4  6  1  0  0  0  0
  4  7  1  0  0  0  0
  2  8  1  0  0  0  0
  8  9  1  0  0  0  0
  8 10  1  0  0  0  0
  8 11  1  0  0  0  0
M  END
> <ChemID>
100301

> <source_casrn>
96-18-4

> <CAS>
96-18-4

> <SMILES>
ClC(CCl)CCl

> <NAME>
Propane, 1,2,3-trichloro-

> <preferred_name>
1,2,3-Trichloropropane

> <iupac>
1,2,3-trichloropropane

> <MPID>
100310

> <dsstox_substance_id>
DTXSID9021390

> <Canonical_QSARr>
ClC(CCl)CCl

> <InChI_Code_QSARr>
InChI=1S/C3H5Cl3/c4-1-3(6)2-5/h3H,1-2H2

> <InChI Key_QSARr>
CFXQEHVMCRXUSD-UHFFFAOYSA-N

> <Salt_Solvent>
?

> <Ready_Biodeg>
0.0

$$$$
100305
  -INDIGO-08031722522D

 15 14  0  0  0  0  0  0  0  0999 V2000
    0.8000    1.3856    0.0000 N   0  0  0  0  0  0  0  0  0  0  0  0
    2.4000    1.3856    0.0000 O   0  0  0  0  0  0  0  0  0  0  0  0
    0.0000    0.0000    0.0000 C   0  0  0  0  0  0  0  0  0  0  0  0
   -0.8000   -1.3856    0.0000 H   0  0  0  0  0  0  0  0  0  0  0  0
   -1.3856    0.8000    0.0000 C   0  0  0  0  0  0  0  0  0  0  0  0
   -0.7733    2.2782    0.0000 H   0  0  0  0  0  0  0  0  0  0  0  0
   -1.9980    2.2782    0.0000 H   0  0  0  0  0  0  0  0  0  0  0  0
   -2.7713    0.0000    0.0000 C   0  0  0  0  0  0  0  0  0  0  0  0
   -4.1569   -0.8000    0.0000 H   0  0  0  0  0  0  0  0  0  0  0  0
   -4.1569    0.8000    0.0000 H   0  0  0  0  0  0  0  0  0  0  0  0
   -2.7713   -1.6000    0.0000 H   0  0  0  0  0  0  0  0  0  0  0  0
    1.3856   -0.8000    0.0000 C   0  0  0  0  0  0  0  0  0  0  0  0
    2.7713   -1.6000    0.0000 H   0  0  0  0  0  0  0  0  0  0  0  0
    2.7713    0.0000    0.0000 H   0  0  0  0  0  0  0  0  0  0  0  0
    1.3856   -2.4000    0.0000 H   0  0  0  0  0  0  0  0  0  0  0  0
  1  2  2  0  0  0  0
  1  3  1  0  0  0  0
  3  4  1  0  0  0  0
  3  5  1  0  0  0  0
  5  6  1  0  0  0  0
  5  7  1  0  0  0  0
  5  8  1  0  0  0  0
  8  9  1  0  0  0  0
  8 10  1  0  0  0  0
  8 11  1  0  0  0  0
  3 12  1  0  0  0  0
 12 13  1  0  0  0  0
 12 14  1  0  0  0  0
 12 15  1  0  0  0  0
M  END
> <ChemID>
100305

> <source_casrn>
96-29-7

> <CAS>
96-29-7

> <SMILES>
CCC(C)=NO

> <NAME>
2-Butanone, oxime

> <preferred_name>
2-Butanone oxime

> <iupac>
N-hydroxybutan-2-imine

> <MPID>
100314

> <dsstox_substance_id>
DTXSID1021821

> <Canonical_QSARr>
CCC(C)N=O

> <InChI_Code_QSARr>
InChI=1S/C4H9NO/c1-3-4(2)5-6/h4H,3H2,1-2H3

> <InChI Key_QSARr>
GRFXXWWBAWFSRF-UHFFFAOYSA-N

> <Salt_Solvent>
?

> <Ready_Biodeg>
0.0

$$$$
100309
  -INDIGO-08031722522D

 10 10  0  0  0  0  0  0  0  0999 V2000
    1.6000    0.0000    0.0000 O   0  0  0  0  0  0  0  0  0  0  0  0
    2.0944   -1.5217    0.0000 C   0  0  0  0  0  0  0  0  0  0  0  0
    3.6161   -2.0161    0.0000 O   0  0  0  0  0  0  0  0  0  0  0  0
    0.8000   -2.4622    0.0000 O   0  0  0  0  0  0  0  0  0  0  0  0
   -0.4944   -1.5217    0.0000 C   0  0  0  0  0  0  0  0  0  0  0  0
   -1.2944   -2.9073    0.0000 H   0  0  0  0  0  0  0  0  0  0  0  0
   -1.9561   -0.8709    0.0000 H   0  0  0  0  0  0  0  0  0  0  0  0
    0.0000    0.0000    0.0000 C   0  0  0  0  0  0  0  0  0  0  0  0
   -1.5651    0.3327    0.0000 H   0  0  0  0  0  0  0  0  0  0  0  0
    0.1673    1.5912    0.0000 H   0  0  0  0  0  0  0  0  0  0  0  0
  1  2  1  0  0  0  0
  2  3  2  0  0  0  0
  2  4  1  0  0  0  0
  4  5  1  0  0  0  0
  5  6  1  0  0  0  0
  5  7  1  0  0  0  0
  5  8  1  0  0  0  0
  8  1  1  0  0  0  0
  8  9  1  0  0  0  0
  8 10  1  0  0  0  0
M  END
> <ChemID>
100309

> <source_casrn>
96-49-1

> <CAS>
96-49-1

> <SMILES>
O=C1OCCO1

> <NAME>
1,3-Dioxolan-2-one

> <preferred_name>
1,3-Dioxolan-2-one

> <iupac>
1,3-dioxolan-2-one

> <MPID>
100318

> <dsstox_substance_id>
DTXSID2026600

> <Canonical_QSARr>
O=C1OCCO1

> <InChI_Code_QSARr>
InChI=1S/C3H4O3/c4-3-5-1-2-6-3/h1-2H2

> <InChI Key_QSARr>
KMTRUDSVKNLOMY-UHFFFAOYSA-N

> <Salt_Solvent>
?

> <Ready_Biodeg>
1.0

$$$$
100313
  -INDIGO-08031722522D

 20 20  0  0  0  0  0  0  0  0999 V2000
   -0.0000    1.6000    0.0000 C   0  0  0  0  0  0  0  0  0  0  0  0
    1.3856    2.4000    0.0000 C   0  0  0  0  0  0  0  0  0  0  0  0
    1.3856    4.0000    0.0000 H   0  0  0  0  0  0  0  0  0  0  0  0
    2.7713    1.6000    0.0000 C   0  0  0  0  0  0  0  0  0  0  0  0
    4.1570    2.4000    0.0000 H   0  0  0  0  0  0  0  0  0  0  0  0
    2.7713    0.0000    0.0000 C   0  0  0  0  0  0  0  0  0  0  0  0
    4.1570   -0.8000    0.0000 O   0  0  0  0  0  0  0  0  0  0  0  0
    5.5426    0.0000    0.0000 C   0  0  0  0  0  0  0  0  0  0  0  0
    6.9282   -0.8000    0.0000 H   0  0  0  0  0  0  0  0  0  0  0  0
    6.9282    0.8000    0.0000 H   0  0  0  0  0  0  0  0  0  0  0  0
    5.5426   -1.6000    0.0000 H   0  0  0  0  0  0  0  0  0  0  0  0
    1.3856   -0.8000    0.0000 C   0  0  0  0  0  0  0  0  0  0  0  0
    1.3856   -2.4000    0.0000 H   0  0  0  0  0  0  0  0  0  0  0  0
   -0.0000    0.0000    0.0000 C   0  0  0  0  0  0  0  0  0  0  0  0
   -1.3857   -0.8000    0.0000 N   0  0  0  0  0  0  0  0  0  0  0  0
   -1.3857   -2.4000    0.0000 O   0  0  0  0  0  0  0  0  0  0  0  0
   -2.7713    0.0000    0.0000 O   0  0  0  0  0  0  0  0  0  0  0  0
   -1.3857    2.4000    0.0000 N   0  0  0  0  0  0  0  0  0  0  0  0
   -1.3857    4.0000    0.0000 H   0  0  0  0  0  0  0  0  0  0  0  0
   -2.7713    1.6000    0.0000 H   0  0  0  0  0  0  0  0  0  0  0  0
  1  2  1  0  0  0  0
  2  3  1  0  0  0  0
  2  4  2  0  0  0  0
  4  5  1  0  0  0  0
  4  6  1  0  0  0  0
  6  7  1  0  0  0  0
  7  8  1  0  0  0  0
  8  9  1  0  0  0  0
  8 10  1  0  0  0  0
  8 11  1  0  0  0  0
  6 12  2  0  0  0  0
 12 13  1  0  0  0  0
 12 14  1  0  0  0  0
 14  1  2  0  0  0  0
 14 15  1  0  0  0  0
 15 16  1  0  0  0  0
 15 17  2  0  0  0  0
  1 18  1  0  0  0  0
 18 19  1  0  0  0  0
 18 20  1  0  0  0  0
M  CHG  2  15   1  16  -1
M  END
> <ChemID>
100313

> <source_casrn>
96-96-8

> <CAS>
96-96-8

> <SMILES>
COc1cc(c(N)cc1)[N+]([O-])=O

> <NAME>
Benzenamine, 4-methoxy-2-nitro-

> <preferred_name>
4-Methoxy-2-nitroaniline

> <iupac>
C7H8N2O3

> <MPID>
100322

> <dsstox_substance_id>
DTXSID3044750

> <Canonical_QSARr>
COc1cc(c(N)cc1)[N+]([O-])=O

> <InChI_Code_QSARr>
InChI=1S/C7H8N2O3/c1-12-5-2-3-6(8)7(4-5)9(10)11/h2-4H,8H2,1H3

> <InChI Key_QSARr>
QFMJFXFXQAFGBO-UHFFFAOYSA-N

> <Salt_Solvent>
?

> <Ready_Biodeg>
0.0

$$$$
100317
  -INDIGO-08031722522D

 13 13  0  0  0  0  0  0  0  0999 V2000
   -1.1890    1.0706    0.0000 C   0  0  0  0  0  0  0  0  0  0  0  0
   -1.0218    2.6618    0.0000 H   0  0  0  0  0  0  0  0  0  0  0  0
    0.0000   -0.0000    0.0000 C   0  0  0  0  0  0  0  0  0  0  0  0
    1.5650    0.3326    0.0000 C   0  0  0  0  0  0  0  0  0  0  0  0
    2.6042    1.5493    0.0000 H   0  0  0  0  0  0  0  0  0  0  0  0
    1.4395    1.9278    0.0000 H   0  0  0  0  0  0  0  0  0  0  0  0
    2.6356   -0.8564    0.0000 O   0  0  0  0  0  0  0  0  0  0  0  0
    4.2007   -0.5237    0.0000 H   0  0  0  0  0  0  0  0  0  0  0  0
   -0.6508   -1.4617    0.0000 O   0  0  0  0  0  0  0  0  0  0  0  0
   -2.2420   -1.2944    0.0000 C   0  0  0  0  0  0  0  0  0  0  0  0
   -3.3126   -2.4835    0.0000 H   0  0  0  0  0  0  0  0  0  0  0  0
   -2.5747    0.2706    0.0000 C   0  0  0  0  0  0  0  0  0  0  0  0
   -4.0363    0.9214    0.0000 H   0  0  0  0  0  0  0  0  0  0  0  0
  1  2  1  0  0  0  0
  1  3  2  0  0  0  0
  3  4  1  0  0  0  0
  4  5  1  0  0  0  0
  4  6  1  0  0  0  0
  4  7  1  0  0  0  0
  7  8  1  0  0  0  0
  3  9  1  0  0  0  0
  9 10  1  0  0  0  0
 10 11  1  0  0  0  0
 10 12  2  0  0  0  0
 12  1  1  0  0  0  0
 12 13  1  0  0  0  0
M  END
> <ChemID>
100317

> <source_casrn>
98-00-0

> <CAS>
98-00-0

> <SMILES>
OCc1ccco1

> <NAME>
2-Furanmethanol

> <preferred_name>
Furfuryl alcohol

> <iupac>
furan-2-ylmethanol

> <MPID>
100326

> <dsstox_substance_id>
DTXSID2025347

> <Canonical_QSARr>
OCc1ccco1

> <InChI_Code_QSARr>
InChI=1S/C5H6O2/c6-4-5-2-1-3-7-5/h1-3,6H,4H2

> <InChI Key_QSARr>
XPFVYQJUAUNWIW-UHFFFAOYSA-N

> <Salt_Solvent>
?

> <Ready_Biodeg>
1.0

$$$$
100321
  -INDIGO-08031722522D

 15 15  0  0  0  0  0  0  0  0999 V2000
    2.4001    1.3856    0.0000 F   0  0  0  0  0  0  0  0  0  0  0  0
    1.6000   -0.0000    0.0000 C   0  0  0  0  0  0  0  0  0  0  0  0
    3.2000   -0.0000    0.0000 F   0  0  0  0  0  0  0  0  0  0  0  0
    2.4001   -1.3856    0.0000 F   0  0  0  0  0  0  0  0  0  0  0  0
    0.0000   -0.0000    0.0000 C   0  0  0  0  0  0  0  0  0  0  0  0
   -0.7999    1.3856    0.0000 C   0  0  0  0  0  0  0  0  0  0  0  0
    0.0000    2.7713    0.0000 H   0  0  0  0  0  0  0  0  0  0  0  0
   -2.4001    1.3856    0.0000 C   0  0  0  0  0  0  0  0  0  0  0  0
   -3.2000    2.7713    0.0000 H   0  0  0  0  0  0  0  0  0  0  0  0
   -3.2000   -0.0000    0.0000 C   0  0  0  0  0  0  0  0  0  0  0  0
   -4.8000   -0.0000    0.0000 H   0  0  0  0  0  0  0  0  0  0  0  0
   -2.4001   -1.3856    0.0000 C   0  0  0  0  0  0  0  0  0  0  0  0
   -3.2000   -2.7713    0.0000 H   0  0  0  0  0  0  0  0  0  0  0  0
   -0.8001   -1.3856    0.0000 C   0  0  0  0  0  0  0  0  0  0  0  0
    0.0000   -2.7713    0.0000 H   0  0  0  0  0  0  0  0  0  0  0  0
  1  2  1  0  0  0  0
  2  3  1  0  0  0  0
  2  4  1  0  0  0  0
  2  5  1  0  0  0  0
  5  6  1  0  0  0  0
  6  7  1  0  0  0  0
  6  8  2  0  0  0  0
  8  9  1  0  0  0  0
  8 10  1  0  0  0  0
 10 11  1  0  0  0  0
 10 12  2  0  0  0  0
 12 13  1  0  0  0  0
 12 14  1  0  0  0  0
 14  5  2  0  0  0  0
 14 15  1  0  0  0  0
M  END
> <ChemID>
100321

> <source_casrn>
98-08-8

> <CAS>
98-08-8

> <SMILES>
FC(F)(F)c1ccccc1

> <NAME>
Benzene, (trifluoromethyl)-

> <preferred_name>
Benzotrifluoride

> <iupac>
(trifluoromethyl)benzene

> <MPID>
100330

> <dsstox_substance_id>
DTXSID2024589

> <Canonical_QSARr>
FC(F)(F)c1ccccc1

> <InChI_Code_QSARr>
InChI=1S/C7H5F3/c8-7(9,10)6-4-2-1-3-5-6/h1-5H

> <InChI Key_QSARr>
GETTZEONDQJALK-UHFFFAOYSA-N

> <Salt_Solvent>
?

> <Ready_Biodeg>
0.0

$$$$
100325
  -INDIGO-08031722522D

 18 18  0  0  0  0  0  0  0  0999 V2000
    0.0001   -0.0000    0.0000 C   0  0  0  0  0  0  0  0  0  0  0  0
    0.0001   -1.6000    0.0000 C   0  0  0  0  0  0  0  0  0  0  0  0
    1.3857   -2.4000    0.0000 H   0  0  0  0  0  0  0  0  0  0  0  0
   -1.3857   -2.4000    0.0000 C   0  0  0  0  0  0  0  0  0  0  0  0
   -1.3857   -4.0000    0.0000 H   0  0  0  0  0  0  0  0  0  0  0  0
   -2.7713   -1.6000    0.0000 C   0  0  0  0  0  0  0  0  0  0  0  0
   -4.1569   -2.4000    0.0000 H   0  0  0  0  0  0  0  0  0  0  0  0
   -2.7713   -0.0000    0.0000 C   0  0  0  0  0  0  0  0  0  0  0  0
   -4.1569    0.8000    0.0000 N   0  0  0  0  0  0  0  0  0  0  0  0
   -5.5426   -0.0000    0.0000 O   0  0  0  0  0  0  0  0  0  0  0  0
   -4.1569    2.4000    0.0000 O   0  0  0  0  0  0  0  0  0  0  0  0
   -1.3857    0.8000    0.0000 C   0  0  0  0  0  0  0  0  0  0  0  0
   -1.3857    2.4000    0.0000 H   0  0  0  0  0  0  0  0  0  0  0  0
    1.3857    0.8000    0.0000 S   0  0  0  0  0  0  0  0  0  0  0  0
    2.1856   -0.5856    0.0000 O   0  0  0  0  0  0  0  0  0  0  0  0
    2.7713    1.6000    0.0000 O   0  0  0  0  0  0  0  0  0  0  0  0
    4.1569    0.8000    0.0000 H   0  0  0  0  0  0  0  0  0  0  0  0
    0.5856    2.1856    0.0000 O   0  0  0  0  0  0  0  0  0  0  0  0
  1  2  1  0  0  0  0
  2  3  1  0  0  0  0
  2  4  2  0  0  0  0
  4  5  1  0  0  0  0
  4  6  1  0  0  0  0
  6  7  1  0  0  0  0
  6  8  2  0  0  0  0
  8  9  1  0  0  0  0
  9 10  1  0  0  0  0
  9 11  2  0  0  0  0
  8 12  1  0  0  0  0
 12  1  2  0  0  0  0
 12 13  1  0  0  0  0
  1 14  1  0  0  0  0
 14 15  2  0  0  0  0
 14 16  1  0  0  0  0
 16 17  1  0  0  0  0
 14 18  2  0  0  0  0
M  CHG  2   9   1  10  -1
M  END
> <ChemID>
100325

> <source_casrn>
98-47-5

> <CAS>
98-47-5

> <SMILES>
[O-][N+](=O)c1cc(ccc1)S(O)(=O)=O

> <NAME>
Benzenesulfonic acid, 3-nitro-

> <preferred_name>
3-Nitrobenzenesulfonic acid

> <iupac>
3-nitrobenzenesulfonic acid

> <MPID>
100334

> <dsstox_substance_id>
DTXSID3048079

> <Canonical_QSARr>
[O-][N+](=O)c1cc(ccc1)S(O)(=O)=O

> <InChI_Code_QSARr>
InChI=1S/C6H5NO5S/c8-7(9)5-2-1-3-6(4-5)13(10,11)12/h1-4H,(H,10,11,12)

> <InChI Key_QSARr>
ONMOULMPIIOVTQ-UHFFFAOYSA-N

> <Salt_Solvent>
?

> <Ready_Biodeg>
0.0

$$$$
100329
  -INDIGO-08031722522D

 29 29  0  0  0  0  0  0  0  0999 V2000
   -0.0000    0.0000    0.0000 C   0  0  0  0  0  0  0  0  0  0  0  0
    1.2256   -1.0284    0.0000 H   0  0  0  0  0  0  0  0  0  0  0  0
   -0.8000    1.3856    0.0000 C   0  0  0  0  0  0  0  0  0  0  0  0
    0.7036    1.9329    0.0000 H   0  0  0  0  0  0  0  0  0  0  0  0
   -1.0778    2.9613    0.0000 H   0  0  0  0  0  0  0  0  0  0  0  0
   -2.3999    1.3856    0.0000 C   0  0  0  0  0  0  0  0  0  0  0  0
   -3.1999    2.7712    0.0000 H   0  0  0  0  0  0  0  0  0  0  0  0
   -3.1999    0.0000    0.0000 C   0  0  0  0  0  0  0  0  0  0  0  0
   -4.8000    0.0000    0.0000 C   0  0  0  0  0  0  0  0  0  0  0  0
   -6.4000    0.0000    0.0000 H   0  0  0  0  0  0  0  0  0  0  0  0
   -5.6000    1.3856    0.0000 H   0  0  0  0  0  0  0  0  0  0  0  0
   -5.6000   -1.3856    0.0000 H   0  0  0  0  0  0  0  0  0  0  0  0
   -2.3999   -1.3856    0.0000 C   0  0  0  0  0  0  0  0  0  0  0  0
   -3.9035   -1.9329    0.0000 H   0  0  0  0  0  0  0  0  0  0  0  0
   -2.1222   -2.9613    0.0000 H   0  0  0  0  0  0  0  0  0  0  0  0
   -0.8000   -1.3856    0.0000 C   0  0  0  0  0  0  0  0  0  0  0  0
   -1.0778   -2.9613    0.0000 H   0  0  0  0  0  0  0  0  0  0  0  0
    0.7036   -1.9329    0.0000 H   0  0  0  0  0  0  0  0  0  0  0  0
    1.2256    1.0284    0.0000 C   0  0  0  0  0  0  0  0  0  0  0  0
    2.2541    2.2541    0.0000 C   0  0  0  0  0  0  0  0  0  0  0  0
    3.2825    3.4798    0.0000 H   0  0  0  0  0  0  0  0  0  0  0  0
    3.8299    1.9763    0.0000 H   0  0  0  0  0  0  0  0  0  0  0  0
    1.7069    3.7576    0.0000 H   0  0  0  0  0  0  0  0  0  0  0  0
    2.4513    0.0000    0.0000 C   0  0  0  0  0  0  0  0  0  0  0  0
    3.6771   -1.0284    0.0000 H   0  0  0  0  0  0  0  0  0  0  0  0
    2.1735   -1.5757    0.0000 H   0  0  0  0  0  0  0  0  0  0  0  0
    3.9549    0.5473    0.0000 H   0  0  0  0  0  0  0  0  0  0  0  0
   -0.0000    2.0570    0.0000 O   0  0  0  0  0  0  0  0  0  0  0  0
    0.2778    3.6327    0.0000 H   0  0  0  0  0  0  0  0  0  0  0  0
  1  2  1  0  0  0  0
  1  3  1  0  0  0  0
  3  4  1  0  0  0  0
  3  5  1  0  0  0  0
  3  6  1  0  0  0  0
  6  7  1  0  0  0  0
  6  8  2  0  0  0  0
  8  9  1  0  0  0  0
  9 10  1  0  0  0  0
  9 11  1  0  0  0  0
  9 12  1  0  0  0  0
  8 13  1  0  0  0  0
 13 14  1  0  0  0  0
 13 15  1  0  0  0  0
 13 16  1  0  0  0  0
 16  1  1  0  0  0  0
 16 17  1  0  0  0  0
 16 18  1  0  0  0  0
  1 19  1  0  0  0  0
 19 20  1  0  0  0  0
 20 21  1  0  0  0  0
 20 22  1  0  0  0  0
 20 23  1  0  0  0  0
 19 24  1  0  0  0  0
 24 25  1  0  0  0  0
 24 26  1  0  0  0  0
 24 27  1  0  0  0  0
 19 28  1  0  0  0  0
 28 29  1  0  0  0  0
M  END
> <ChemID>
100329

> <source_casrn>
98-55-5|10482-56-1

> <CAS>
98-55-5|10482-56-1

> <SMILES>
CC1CCC(CC=1)C(C)(C)O

> <NAME>
3-Cyclohexene-1-methanol, .alpha.,.alpha.,4-trimethyl-, 3-Cyclohexene-1-methanol, .alpha.,.alpha.,4-trimethyl-, (S)-

> <preferred_name>
alpha-Terpineol

> <iupac>
2-(4-methylcyclohex-3-en-1-yl)propan-2-ol

> <MPID>
100338|101113

> <dsstox_substance_id>
DTXSID5026625|DTXSID5052672

> <Canonical_QSARr>
CC1CCC(CC=1)C(C)(C)O

> <InChI_Code_QSARr>
InChI=1S/C10H18O/c1-8-4-6-9(7-5-8)10(2,3)11/h4,9,11H,5-7H2,1-3H3

> <InChI Key_QSARr>
WUOACPNHFRMFPN-UHFFFAOYSA-N

> <Salt_Solvent>
?

> <Ready_Biodeg>
1.0

$$$$
100333
  -INDIGO-08031722522D

 27 27  0  0  0  0  0  0  0  0999 V2000
    6.4000    0.0000    0.0000 C   0  0  0  0  0  0  0  0  0  0  0  0
    7.2000   -1.3857    0.0000 O   0  0  0  0  0  0  0  0  0  0  0  0
    4.8000    0.0000    0.0000 C   0  0  0  0  0  0  0  0  0  0  0  0
    4.0000    1.3857    0.0000 C   0  0  0  0  0  0  0  0  0  0  0  0
    4.8000    2.7713    0.0000 H   0  0  0  0  0  0  0  0  0  0  0  0
    2.4000    1.3857    0.0000 C   0  0  0  0  0  0  0  0  0  0  0  0
    1.6000    2.7713    0.0000 H   0  0  0  0  0  0  0  0  0  0  0  0
    1.6000    0.0000    0.0000 C   0  0  0  0  0  0  0  0  0  0  0  0
    0.0000   -0.0000    0.0000 C   0  0  0  0  0  0  0  0  0  0  0  0
   -1.6000   -0.0000    0.0000 C   0  0  0  0  0  0  0  0  0  0  0  0
   -3.2000   -0.0000    0.0000 H   0  0  0  0  0  0  0  0  0  0  0  0
   -2.6285    1.2256    0.0000 H   0  0  0  0  0  0  0  0  0  0  0  0
   -2.6285   -1.2256    0.0000 H   0  0  0  0  0  0  0  0  0  0  0  0
    0.0000    1.6000    0.0000 C   0  0  0  0  0  0  0  0  0  0  0  0
    0.2778    3.1757    0.0000 H   0  0  0  0  0  0  0  0  0  0  0  0
   -1.2257    2.6285    0.0000 H   0  0  0  0  0  0  0  0  0  0  0  0
   -1.5035    1.0527    0.0000 H   0  0  0  0  0  0  0  0  0  0  0  0
    0.0000   -1.6000    0.0000 C   0  0  0  0  0  0  0  0  0  0  0  0
    0.2778   -3.1757    0.0000 H   0  0  0  0  0  0  0  0  0  0  0  0
   -1.2257   -2.6285    0.0000 H   0  0  0  0  0  0  0  0  0  0  0  0
   -1.5035   -1.0527    0.0000 H   0  0  0  0  0  0  0  0  0  0  0  0
    2.4000   -1.3857    0.0000 C   0  0  0  0  0  0  0  0  0  0  0  0
    1.6000   -2.7713    0.0000 H   0  0  0  0  0  0  0  0  0  0  0  0
    4.0000   -1.3857    0.0000 C   0  0  0  0  0  0  0  0  0  0  0  0
    4.8000   -2.7713    0.0000 H   0  0  0  0  0  0  0  0  0  0  0  0
    7.2000    1.3857    0.0000 O   0  0  0  0  0  0  0  0  0  0  0  0
    8.8000    1.3857    0.0000 H   0  0  0  0  0  0  0  0  0  0  0  0
  1  2  2  0  0  0  0
  1  3  1  0  0  0  0
  3  4  1  0  0  0  0
  4  5  1  0  0  0  0
  4  6  2  0  0  0  0
  6  7  1  0  0  0  0
  6  8  1  0  0  0  0
  8  9  1  0  0  0  0
  9 10  1  0  0  0  0
 10 11  1  0  0  0  0
 10 12  1  0  0  0  0
 10 13  1  0  0  0  0
  9 14  1  0  0  0  0
 14 15  1  0  0  0  0
 14 16  1  0  0  0  0
 14 17  1  0  0  0  0
  9 18  1  0  0  0  0
 18 19  1  0  0  0  0
 18 20  1  0  0  0  0
 18 21  1  0  0  0  0
  8 22  2  0  0  0  0
 22 23  1  0  0  0  0
 22 24  1  0  0  0  0
 24  3  2  0  0  0  0
 24 25  1  0  0  0  0
  1 26  1  0  0  0  0
 26 27  1  0  0  0  0
M  END
> <ChemID>
100333

> <source_casrn>
98-73-7

> <CAS>
98-73-7

> <SMILES>
CC(C)(C)c1ccc(cc1)C(O)=O

> <NAME>
Benzoic acid, 4-(1,1-dimethylethyl)-

> <preferred_name>
4-tert-Butylbenzoic acid

> <iupac>
4-tert-butylbenzoic acid

> <MPID>
100342

> <dsstox_substance_id>
DTXSID0040703

> <Canonical_QSARr>
CC(C)(C)c1ccc(cc1)C(O)=O

> <InChI_Code_QSARr>
InChI=1S/C11H14O2/c1-11(2,3)9-6-4-8(5-7-9)10(12)13/h4-7H,1-3H3,(H,12,13)

> <InChI Key_QSARr>
KDVYCTOWXSLNNI-UHFFFAOYSA-N

> <Salt_Solvent>
?

> <Ready_Biodeg>
0.0

$$$$
100337
  -INDIGO-08031722522D

 17 17  0  0  0  0  0  0  0  0999 V2000
    1.6000   -0.0000    0.0000 C   0  0  0  0  0  0  0  0  0  0  0  0
    2.4001   -1.3856    0.0000 C   0  0  0  0  0  0  0  0  0  0  0  0
    3.2000   -2.7713    0.0000 H   0  0  0  0  0  0  0  0  0  0  0  0
    4.0000   -1.3856    0.0000 H   0  0  0  0  0  0  0  0  0  0  0  0
    1.6000   -2.7713    0.0000 H   0  0  0  0  0  0  0  0  0  0  0  0
    2.4001    1.3856    0.0000 O   0  0  0  0  0  0  0  0  0  0  0  0
   -0.0000    0.0000    0.0000 C   0  0  0  0  0  0  0  0  0  0  0  0
   -0.8000    1.3856    0.0000 C   0  0  0  0  0  0  0  0  0  0  0  0
   -0.0000    2.7713    0.0000 H   0  0  0  0  0  0  0  0  0  0  0  0
   -2.4000    1.3856    0.0000 C   0  0  0  0  0  0  0  0  0  0  0  0
   -3.2001    2.7713    0.0000 H   0  0  0  0  0  0  0  0  0  0  0  0
   -3.2001    0.0000    0.0000 C   0  0  0  0  0  0  0  0  0  0  0  0
   -4.8000   -0.0000    0.0000 H   0  0  0  0  0  0  0  0  0  0  0  0
   -2.4000   -1.3856    0.0000 C   0  0  0  0  0  0  0  0  0  0  0  0
   -3.2001   -2.7713    0.0000 H   0  0  0  0  0  0  0  0  0  0  0  0
   -0.8000   -1.3856    0.0000 C   0  0  0  0  0  0  0  0  0  0  0  0
   -0.0000   -2.7713    0.0000 H   0  0  0  0  0  0  0  0  0  0  0  0
  1  2  1  0  0  0  0
  2  3  1  0  0  0  0
  2  4  1  0  0  0  0
  2  5  1  0  0  0  0
  1  6  2  0  0  0  0
  1  7  1  0  0  0  0
  7  8  1  0  0  0  0
  8  9  1  0  0  0  0
  8 10  2  0  0  0  0
 10 11  1  0  0  0  0
 10 12  1  0  0  0  0
 12 13  1  0  0  0  0
 12 14  2  0  0  0  0
 14 15  1  0  0  0  0
 14 16  1  0  0  0  0
 16  7  2  0  0  0  0
 16 17  1  0  0  0  0
M  END
> <ChemID>
100337

> <source_casrn>
98-86-2

> <CAS>
98-86-2

> <SMILES>
CC(=O)c1ccccc1

> <NAME>
Ethanone, 1-phenyl-

> <preferred_name>
Acetophenone

> <iupac>
1-phenylethanone

> <MPID>
100346

> <dsstox_substance_id>
DTXSID6021828

> <Canonical_QSARr>
CC(=O)c1ccccc1

> <InChI_Code_QSARr>
InChI=1S/C8H8O/c1-7(9)8-5-3-2-4-6-8/h2-6H,1H3

> <InChI Key_QSARr>
KWOLFJPFCHCOCG-UHFFFAOYSA-N

> <Salt_Solvent>
?

> <Ready_Biodeg>
1.0

$$$$
100341
  -INDIGO-08031722522D

 14 14  0  0  0  0  0  0  0  0999 V2000
    2.7713    1.6000    0.0000 C   0  0  0  0  0  0  0  0  0  0  0  0
    4.1569    2.4000    0.0000 H   0  0  0  0  0  0  0  0  0  0  0  0
    2.7713    0.0000    0.0000 C   0  0  0  0  0  0  0  0  0  0  0  0
    4.1569   -0.8000    0.0000 H   0  0  0  0  0  0  0  0  0  0  0  0
    1.3856   -0.8000    0.0000 C   0  0  0  0  0  0  0  0  0  0  0  0
    1.3856   -2.4000    0.0000 H   0  0  0  0  0  0  0  0  0  0  0  0
    0.0001    0.0000    0.0000 C   0  0  0  0  0  0  0  0  0  0  0  0
   -1.3856   -0.8000    0.0000 C   0  0  0  0  0  0  0  0  0  0  0  0
   -2.7712    0.0000    0.0000 O   0  0  0  0  0  0  0  0  0  0  0  0
   -4.1569   -0.8000    0.0000 H   0  0  0  0  0  0  0  0  0  0  0  0
   -1.3856   -2.4000    0.0000 O   0  0  0  0  0  0  0  0  0  0  0  0
    0.0001    1.6000    0.0000 N   0  0  0  0  0  0  0  0  0  0  0  0
    1.3856    2.4000    0.0000 C   0  0  0  0  0  0  0  0  0  0  0  0
    1.3856    4.0000    0.0000 H   0  0  0  0  0  0  0  0  0  0  0  0
  1  2  1  0  0  0  0
  1  3  1  0  0  0  0
  3  4  1  0  0  0  0
  3  5  2  0  0  0  0
  5  6  1  0  0  0  0
  5  7  1  0  0  0  0
  7  8  1  0  0  0  0
  8  9  1  0  0  0  0
  9 10  1  0  0  0  0
  8 11  2  0  0  0  0
  7 12  2  0  0  0  0
 12 13  1  0  0  0  0
 13  1  2  0  0  0  0
 13 14  1  0  0  0  0
M  END
> <ChemID>
100341

> <source_casrn>
98-98-6

> <CAS>
98-98-6

> <SMILES>
OC(=O)c1cccc[n]1

> <NAME>
PICOLINIC ACID

> <preferred_name>
Picolinic acid

> <iupac>
pyridine-2-carboxylic acid

> <MPID>
100350

> <dsstox_substance_id>
DTXSID7031903

> <Canonical_QSARr>
OC(=O)c1cccc[n]1

> <InChI_Code_QSARr>
InChI=1S/C6H5NO2/c8-6(9)5-3-1-2-4-7-5/h1-4H,(H,8,9)

> <InChI Key_QSARr>
SIOXPEMLGUPBBT-UHFFFAOYSA-N

> <Salt_Solvent>
?

> <Ready_Biodeg>
1.0

$$$$
100345
  -INDIGO-08031722522D

 17 17  0  0  0  0  0  0  0  0999 V2000
    1.3857    0.8000    0.0000 C   0  0  0  0  0  0  0  0  0  0  0  0
    2.7713    1.6000    0.0000 H   0  0  0  0  0  0  0  0  0  0  0  0
    2.7713   -0.0000    0.0000 H   0  0  0  0  0  0  0  0  0  0  0  0
    1.3857    2.4000    0.0000 H   0  0  0  0  0  0  0  0  0  0  0  0
    0.0000   -0.0000    0.0000 C   0  0  0  0  0  0  0  0  0  0  0  0
   -1.3857    0.8000    0.0000 C   0  0  0  0  0  0  0  0  0  0  0  0
   -1.3857    2.4000    0.0000 H   0  0  0  0  0  0  0  0  0  0  0  0
   -2.7713   -0.0000    0.0000 C   0  0  0  0  0  0  0  0  0  0  0  0
   -4.1570    0.8000    0.0000 N   0  0  0  0  0  0  0  0  0  0  0  0
   -5.5426   -0.0000    0.0000 O   0  0  0  0  0  0  0  0  0  0  0  0
   -4.1569    2.4000    0.0000 O   0  0  0  0  0  0  0  0  0  0  0  0
   -2.7713   -1.6000    0.0000 C   0  0  0  0  0  0  0  0  0  0  0  0
   -4.1569   -2.4000    0.0000 H   0  0  0  0  0  0  0  0  0  0  0  0
   -1.3856   -2.4000    0.0000 C   0  0  0  0  0  0  0  0  0  0  0  0
   -1.3856   -4.0000    0.0000 H   0  0  0  0  0  0  0  0  0  0  0  0
    0.0000   -1.6000    0.0000 C   0  0  0  0  0  0  0  0  0  0  0  0
    1.3857   -2.4000    0.0000 H   0  0  0  0  0  0  0  0  0  0  0  0
  1  2  1  0  0  0  0
  1  3  1  0  0  0  0
  1  4  1  0  0  0  0
  1  5  1  0  0  0  0
  5  6  1  0  0  0  0
  6  7  1  0  0  0  0
  6  8  2  0  0  0  0
  8  9  1  0  0  0  0
  9 10  2  0  0  0  0
  9 11  1  0  0  0  0
  8 12  1  0  0  0  0
 12 13  1  0  0  0  0
 12 14  2  0  0  0  0
 14 15  1  0  0  0  0
 14 16  1  0  0  0  0
 16  5  2  0  0  0  0
 16 17  1  0  0  0  0
M  CHG  2   9   1  11  -1
M  END
> <ChemID>
100345

> <source_casrn>
99-08-1

> <CAS>
99-08-1

> <SMILES>
Cc1cc(ccc1)[N+]([O-])=O

> <NAME>
Benzene, 1-methyl-3-nitro-

> <preferred_name>
3-Nitrotoluene

> <iupac>
1-methyl-3-nitrobenzene

> <MPID>
100354

> <dsstox_substance_id>
DTXSID5021831

> <Canonical_QSARr>
Cc1cc(ccc1)[N+]([O-])=O

> <InChI_Code_QSARr>
InChI=1S/C7H7NO2/c1-6-3-2-4-7(5-6)8(9)10/h2-5H,1H3

> <InChI Key_QSARr>
QZYHIOPPLUPUJF-UHFFFAOYSA-N

> <Salt_Solvent>
?

> <Ready_Biodeg>
0.0

$$$$
100349
  -INDIGO-08031722522D

 17 17  0  0  0  0  0  0  0  0999 V2000
    0.0000   -0.0000    0.0000 C   0  0  0  0  0  0  0  0  0  0  0  0
   -0.7999    1.3856    0.0000 C   0  0  0  0  0  0  0  0  0  0  0  0
    0.0000    2.7713    0.0000 H   0  0  0  0  0  0  0  0  0  0  0  0
   -2.4000    1.3856    0.0000 C   0  0  0  0  0  0  0  0  0  0  0  0
   -3.2000    2.7713    0.0000 O   0  0  0  0  0  0  0  0  0  0  0  0
   -4.8000    2.7713    0.0000 H   0  0  0  0  0  0  0  0  0  0  0  0
   -3.2000   -0.0000    0.0000 C   0  0  0  0  0  0  0  0  0  0  0  0
   -4.8000   -0.0000    0.0000 O   0  0  0  0  0  0  0  0  0  0  0  0
   -5.6000   -1.3856    0.0000 H   0  0  0  0  0  0  0  0  0  0  0  0
   -2.4000   -1.3856    0.0000 C   0  0  0  0  0  0  0  0  0  0  0  0
   -3.2000   -2.7713    0.0000 H   0  0  0  0  0  0  0  0  0  0  0  0
   -0.8001   -1.3856    0.0000 C   0  0  0  0  0  0  0  0  0  0  0  0
    0.0000   -2.7713    0.0000 H   0  0  0  0  0  0  0  0  0  0  0  0
    1.6000   -0.0000    0.0000 C   0  0  0  0  0  0  0  0  0  0  0  0
    2.4001   -1.3856    0.0000 O   0  0  0  0  0  0  0  0  0  0  0  0
    4.0000   -1.3856    0.0000 H   0  0  0  0  0  0  0  0  0  0  0  0
    2.4001    1.3856    0.0000 O   0  0  0  0  0  0  0  0  0  0  0  0
  1  2  1  0  0  0  0
  2  3  1  0  0  0  0
  2  4  2  0  0  0  0
  4  5  1  0  0  0  0
  5  6  1  0  0  0  0
  4  7  1  0  0  0  0
  7  8  1  0  0  0  0
  8  9  1  0  0  0  0
  7 10  2  0  0  0  0
 10 11  1  0  0  0  0
 10 12  1  0  0  0  0
 12  1  2  0  0  0  0
 12 13  1  0  0  0  0
  1 14  1  0  0  0  0
 14 15  1  0  0  0  0
 15 16  1  0  0  0  0
 14 17  2  0  0  0  0
M  END
> <ChemID>
100349

> <source_casrn>
99-50-3

> <CAS>
99-50-3

> <SMILES>
Oc1cc(ccc1O)C(O)=O

> <NAME>
3,4-Dihydroxybenzoic acid

> <preferred_name>
3,4-Dihydroxybenzoic acid

> <iupac>
3,4-dihydroxybenzoic acid

> <MPID>
100358

> <dsstox_substance_id>
DTXSID4021212

> <Canonical_QSARr>
Oc1cc(ccc1O)C(O)=O

> <InChI_Code_QSARr>
InChI=1S/C7H6O4/c8-5-2-1-4(7(10)11)3-6(5)9/h1-3,8-9H,(H,10,11)

> <InChI Key_QSARr>
YQUVCSBJEUQKSH-UHFFFAOYSA-N

> <Salt_Solvent>
?

> <Ready_Biodeg>
1.0

$$$$
100353
  -INDIGO-08031722522D

 25 25  0  0  0  0  0  0  0  0999 V2000
   -1.6000   -0.0000    0.0000 C   0  0  0  0  0  0  0  0  0  0  0  0
   -2.4000    1.3857    0.0000 C   0  0  0  0  0  0  0  0  0  0  0  0
   -1.6000    2.7713    0.0000 H   0  0  0  0  0  0  0  0  0  0  0  0
   -4.0000    1.3857    0.0000 C   0  0  0  0  0  0  0  0  0  0  0  0
   -4.7999    2.7713    0.0000 H   0  0  0  0  0  0  0  0  0  0  0  0
   -4.7999   -0.0000    0.0000 C   0  0  0  0  0  0  0  0  0  0  0  0
   -6.4000   -0.0000    0.0000 O   0  0  0  0  0  0  0  0  0  0  0  0
   -7.2000   -1.3857    0.0000 H   0  0  0  0  0  0  0  0  0  0  0  0
   -4.0000   -1.3857    0.0000 C   0  0  0  0  0  0  0  0  0  0  0  0
   -4.7999   -2.7713    0.0000 H   0  0  0  0  0  0  0  0  0  0  0  0
   -2.4000   -1.3857    0.0000 C   0  0  0  0  0  0  0  0  0  0  0  0
   -1.6000   -2.7713    0.0000 H   0  0  0  0  0  0  0  0  0  0  0  0
    0.0001   -0.0000    0.0000 C   0  0  0  0  0  0  0  0  0  0  0  0
    0.0001   -1.6000    0.0000 H   0  0  0  0  0  0  0  0  0  0  0  0
    1.3857   -0.8000    0.0000 C   0  0  0  0  0  0  0  0  0  0  0  0
    2.3596    0.4694    0.0000 H   0  0  0  0  0  0  0  0  0  0  0  0
    2.9720   -0.5911    0.0000 H   0  0  0  0  0  0  0  0  0  0  0  0
    1.3857   -2.4000    0.0000 C   0  0  0  0  0  0  0  0  0  0  0  0
    1.3857   -4.0000    0.0000 H   0  0  0  0  0  0  0  0  0  0  0  0
    2.7713   -3.2000    0.0000 H   0  0  0  0  0  0  0  0  0  0  0  0
    0.0001   -3.2000    0.0000 H   0  0  0  0  0  0  0  0  0  0  0  0
    0.0001    1.6000    0.0000 C   0  0  0  0  0  0  0  0  0  0  0  0
    1.3857    2.4000    0.0000 H   0  0  0  0  0  0  0  0  0  0  0  0
    0.0001    3.2000    0.0000 H   0  0  0  0  0  0  0  0  0  0  0  0
    1.3857    0.8000    0.0000 H   0  0  0  0  0  0  0  0  0  0  0  0
  1  2  1  0  0  0  0
  2  3  1  0  0  0  0
  2  4  2  0  0  0  0
  4  5  1  0  0  0  0
  4  6  1  0  0  0  0
  6  7  1  0  0  0  0
  7  8  1  0  0  0  0
  6  9  2  0  0  0  0
  9 10  1  0  0  0  0
  9 11  1  0  0  0  0
 11  1  2  0  0  0  0
 11 12  1  0  0  0  0
  1 13  1  0  0  0  0
 13 14  1  0  0  0  0
 13 15  1  0  0  0  0
 15 16  1  0  0  0  0
 15 17  1  0  0  0  0
 15 18  1  0  0  0  0
 18 19  1  0  0  0  0
 18 20  1  0  0  0  0
 18 21  1  0  0  0  0
 13 22  1  0  0  0  0
 22 23  1  0  0  0  0
 22 24  1  0  0  0  0
 22 25  1  0  0  0  0
M  END
> <ChemID>
100353

> <source_casrn>
99-71-8

> <CAS>
99-71-8

> <SMILES>
CCC(C)c1ccc(O)cc1

> <NAME>
Phenol, 4-(1-methylpropyl)-

> <preferred_name>
4-(Butan-2-yl)phenol

> <iupac>
4-(butan-2-yl)phenol

> <MPID>
100362

> <dsstox_substance_id>
DTXSID7022332

> <Canonical_QSARr>
CCC(C)c1ccc(O)cc1

> <InChI_Code_QSARr>
InChI=1S/C10H14O/c1-3-8(2)9-4-6-10(11)7-5-9/h4-8,11H,3H2,1-2H3

> <InChI Key_QSARr>
ZUTYZAFDFLLILI-UHFFFAOYSA-N

> <Salt_Solvent>
?

> <Ready_Biodeg>
0.0

$$$$
100357
  -INDIGO-08031722522D

 19 19  0  0  0  0  0  0  0  0999 V2000
    0.0000   -0.0000    0.0000 C   0  0  0  0  0  0  0  0  0  0  0  0
   -0.7999    1.3856    0.0000 C   0  0  0  0  0  0  0  0  0  0  0  0
    0.0000    2.7713    0.0000 H   0  0  0  0  0  0  0  0  0  0  0  0
   -2.4000    1.3856    0.0000 C   0  0  0  0  0  0  0  0  0  0  0  0
   -3.2000    2.7713    0.0000 H   0  0  0  0  0  0  0  0  0  0  0  0
   -3.2000   -0.0000    0.0000 C   0  0  0  0  0  0  0  0  0  0  0  0
   -4.8000   -0.0000    0.0000 N   0  0  0  0  0  0  0  0  0  0  0  0
   -5.6000   -1.3856    0.0000 H   0  0  0  0  0  0  0  0  0  0  0  0
   -5.6000    1.3856    0.0000 H   0  0  0  0  0  0  0  0  0  0  0  0
   -2.4000   -1.3856    0.0000 C   0  0  0  0  0  0  0  0  0  0  0  0
   -3.2000   -2.7713    0.0000 H   0  0  0  0  0  0  0  0  0  0  0  0
   -0.8001   -1.3856    0.0000 C   0  0  0  0  0  0  0  0  0  0  0  0
    0.0000   -2.7713    0.0000 H   0  0  0  0  0  0  0  0  0  0  0  0
    1.6000   -0.0000    0.0000 C   0  0  0  0  0  0  0  0  0  0  0  0
    2.4001    1.3856    0.0000 C   0  0  0  0  0  0  0  0  0  0  0  0
    3.2000    2.7713    0.0000 H   0  0  0  0  0  0  0  0  0  0  0  0
    4.0000    1.3856    0.0000 H   0  0  0  0  0  0  0  0  0  0  0  0
    1.6000    2.7713    0.0000 H   0  0  0  0  0  0  0  0  0  0  0  0
    2.4001   -1.3856    0.0000 O   0  0  0  0  0  0  0  0  0  0  0  0
  1  2  1  0  0  0  0
  2  3  1  0  0  0  0
  2  4  2  0  0  0  0
  4  5  1  0  0  0  0
  4  6  1  0  0  0  0
  6  7  1  0  0  0  0
  7  8  1  0  0  0  0
  7  9  1  0  0  0  0
  6 10  2  0  0  0  0
 10 11  1  0  0  0  0
 10 12  1  0  0  0  0
 12  1  2  0  0  0  0
 12 13  1  0  0  0  0
  1 14  1  0  0  0  0
 14 15  1  0  0  0  0
 15 16  1  0  0  0  0
 15 17  1  0  0  0  0
 15 18  1  0  0  0  0
 14 19  2  0  0  0  0
M  END
> <ChemID>
100357

> <source_casrn>
99-92-3

> <CAS>
99-92-3

> <SMILES>
CC(=O)c1ccc(N)cc1

> <NAME>
4-Aminoacetophenone

> <preferred_name>
4-Aminoacetophenone

> <iupac>
1-(4-aminophenyl)ethanone

> <MPID>
100366

> <dsstox_substance_id>
DTXSID6052669

> <Canonical_QSARr>
CC(=O)c1ccc(N)cc1

> <InChI_Code_QSARr>
InChI=1S/C8H9NO/c1-6(10)7-2-4-8(9)5-3-7/h2-5H,9H2,1H3

> <InChI Key_QSARr>
GPRYKVSEZCQIHD-UHFFFAOYSA-N

> <Salt_Solvent>
?

> <Ready_Biodeg>
0.0

$$$$
100361
  -INDIGO-08031722522D

 17 17  0  0  0  0  0  0  0  0999 V2000
    2.4000    1.3856    0.0000 C   0  0  0  0  0  0  0  0  0  0  0  0
    3.2000    2.7713    0.0000 H   0  0  0  0  0  0  0  0  0  0  0  0
    0.8000    1.3856    0.0000 C   0  0  0  0  0  0  0  0  0  0  0  0
    0.0000    2.7713    0.0000 H   0  0  0  0  0  0  0  0  0  0  0  0
    0.0000    0.0000    0.0000 C   0  0  0  0  0  0  0  0  0  0  0  0
   -1.6001    0.0000    0.0000 C   0  0  0  0  0  0  0  0  0  0  0  0
   -3.2000    0.0000    0.0000 H   0  0  0  0  0  0  0  0  0  0  0  0
   -2.4000   -1.3856    0.0000 H   0  0  0  0  0  0  0  0  0  0  0  0
   -2.4000    1.3856    0.0000 H   0  0  0  0  0  0  0  0  0  0  0  0
    0.8000   -1.3856    0.0000 C   0  0  0  0  0  0  0  0  0  0  0  0
    0.0000   -2.7713    0.0000 H   0  0  0  0  0  0  0  0  0  0  0  0
    2.4000   -1.3856    0.0000 C   0  0  0  0  0  0  0  0  0  0  0  0
    3.2000   -2.7713    0.0000 H   0  0  0  0  0  0  0  0  0  0  0  0
    3.2000   -0.0000    0.0000 C   0  0  0  0  0  0  0  0  0  0  0  0
    4.8000    0.0000    0.0000 N   0  0  0  0  0  0  0  0  0  0  0  0
    5.6000   -1.3856    0.0000 O   0  0  0  0  0  0  0  0  0  0  0  0
    5.6000    1.3856    0.0000 O   0  0  0  0  0  0  0  0  0  0  0  0
  1  2  1  0  0  0  0
  1  3  1  0  0  0  0
  3  4  1  0  0  0  0
  3  5  2  0  0  0  0
  5  6  1  0  0  0  0
  6  7  1  0  0  0  0
  6  8  1  0  0  0  0
  6  9  1  0  0  0  0
  5 10  1  0  0  0  0
 10 11  1  0  0  0  0
 10 12  2  0  0  0  0
 12 13  1  0  0  0  0
 12 14  1  0  0  0  0
 14  1  2  0  0  0  0
 14 15  1  0  0  0  0
 15 16  2  0  0  0  0
 15 17  1  0  0  0  0
M  CHG  2  15   1  17  -1
M  END
> <ChemID>
100361

> <source_casrn>
99-99-0

> <CAS>
99-99-0

> <SMILES>
Cc1ccc(cc1)[N+]([O-])=O

> <NAME>
Benzene, 1-methyl-4-nitro-

> <preferred_name>
4-Nitrotoluene

> <iupac>
1-methyl-4-nitrobenzene

> <MPID>
100370

> <dsstox_substance_id>
DTXSID5023792

> <Canonical_QSARr>
Cc1ccc(cc1)[N+]([O-])=O

> <InChI_Code_QSARr>
InChI=1S/C7H7NO2/c1-6-2-4-7(5-3-6)8(9)10/h2-5H,1H3

> <InChI Key_QSARr>
ZPTVNYMJQHSSEA-UHFFFAOYSA-N

> <Salt_Solvent>
?

> <Ready_Biodeg>
0.0

$$$$
100365
  -INDIGO-08031722522D

 19 19  0  0  0  0  0  0  0  0999 V2000
    5.6000   -1.3856    0.0000 C   0  0  0  0  0  0  0  0  0  0  0  0
    7.2000   -1.3856    0.0000 H   0  0  0  0  0  0  0  0  0  0  0  0
    6.4000   -2.7713    0.0000 H   0  0  0  0  0  0  0  0  0  0  0  0
    6.4000   -0.0000    0.0000 H   0  0  0  0  0  0  0  0  0  0  0  0
    4.8000   -0.0000    0.0000 O   0  0  0  0  0  0  0  0  0  0  0  0
    3.2001   -0.0000    0.0000 C   0  0  0  0  0  0  0  0  0  0  0  0
    2.4001    1.3856    0.0000 C   0  0  0  0  0  0  0  0  0  0  0  0
    3.2001    2.7713    0.0000 H   0  0  0  0  0  0  0  0  0  0  0  0
    0.7999    1.3856    0.0000 C   0  0  0  0  0  0  0  0  0  0  0  0
   -0.0001    2.7713    0.0000 H   0  0  0  0  0  0  0  0  0  0  0  0
   -0.0001    0.0000    0.0000 C   0  0  0  0  0  0  0  0  0  0  0  0
   -1.6000   -0.0000    0.0000 C   0  0  0  0  0  0  0  0  0  0  0  0
   -2.4000   -1.3856    0.0000 O   0  0  0  0  0  0  0  0  0  0  0  0
   -2.4000    1.3856    0.0000 O   0  0  0  0  0  0  0  0  0  0  0  0
   -4.0000    1.3856    0.0000 H   0  0  0  0  0  0  0  0  0  0  0  0
    0.7999   -1.3856    0.0000 C   0  0  0  0  0  0  0  0  0  0  0  0
   -0.0001   -2.7713    0.0000 H   0  0  0  0  0  0  0  0  0  0  0  0
    2.4001   -1.3856    0.0000 C   0  0  0  0  0  0  0  0  0  0  0  0
    3.2001   -2.7713    0.0000 H   0  0  0  0  0  0  0  0  0  0  0  0
  1  2  1  0  0  0  0
  1  3  1  0  0  0  0
  1  4  1  0  0  0  0
  1  5  1  0  0  0  0
  5  6  1  0  0  0  0
  6  7  1  0  0  0  0
  7  8  1  0  0  0  0
  7  9  2  0  0  0  0
  9 10  1  0  0  0  0
  9 11  1  0  0  0  0
 11 12  1  0  0  0  0
 12 13  2  0  0  0  0
 12 14  1  0  0  0  0
 14 15  1  0  0  0  0
 11 16  2  0  0  0  0
 16 17  1  0  0  0  0
 16 18  1  0  0  0  0
 18  6  2  0  0  0  0
 18 19  1  0  0  0  0
M  END
> <ChemID>
100365

> <source_casrn>
100-09-4

> <CAS>
100-09-4

> <SMILES>
COc1ccc(cc1)C(O)=O

> <NAME>
4-Methoxybenzoic acid

> <preferred_name>
Benzoic acid, 4-methoxy-

> <iupac>
4-Methoxybenzoic acid

> <MPID>
100374

> <dsstox_substance_id>
DTXSID4059205

> <Canonical_QSARr>
COc1ccc(cc1)C(O)=O

> <InChI_Code_QSARr>
InChI=1S/C8H8O3/c1-11-7-4-2-6(3-5-7)8(9)10/h2-5H,1H3,(H,9,10)

> <InChI Key_QSARr>
ZEYHEAKUIGZSGI-UHFFFAOYSA-N

> <Salt_Solvent>
?

> <Ready_Biodeg>
1.0

$$$$
100369
  -INDIGO-08031722522D

 16 16  0  0  0  0  0  0  0  0999 V2000
    2.4000   -1.3856    0.0000 O   0  0  0  0  0  0  0  0  0  0  0  0
    1.6001   -0.0000    0.0000 N   0  0  0  0  0  0  0  0  0  0  0  0
    2.4000    1.3856    0.0000 O   0  0  0  0  0  0  0  0  0  0  0  0
    0.0001   -0.0000    0.0000 C   0  0  0  0  0  0  0  0  0  0  0  0
   -0.8000    1.3856    0.0000 C   0  0  0  0  0  0  0  0  0  0  0  0
    0.0001    2.7713    0.0000 H   0  0  0  0  0  0  0  0  0  0  0  0
   -2.4000    1.3856    0.0000 C   0  0  0  0  0  0  0  0  0  0  0  0
   -3.1999    2.7713    0.0000 H   0  0  0  0  0  0  0  0  0  0  0  0
   -3.2001   -0.0000    0.0000 C   0  0  0  0  0  0  0  0  0  0  0  0
   -4.7999   -0.0000    0.0000 N   0  0  0  0  0  0  0  0  0  0  0  0
   -5.6000    1.3856    0.0000 O   0  0  0  0  0  0  0  0  0  0  0  0
   -5.6000   -1.3856    0.0000 O   0  0  0  0  0  0  0  0  0  0  0  0
   -2.4000   -1.3856    0.0000 C   0  0  0  0  0  0  0  0  0  0  0  0
   -3.2001   -2.7713    0.0000 H   0  0  0  0  0  0  0  0  0  0  0  0
   -0.8000   -1.3856    0.0000 C   0  0  0  0  0  0  0  0  0  0  0  0
    0.0001   -2.7713    0.0000 H   0  0  0  0  0  0  0  0  0  0  0  0
  1  2  1  0  0  0  0
  2  3  2  0  0  0  0
  2  4  1  0  0  0  0
  4  5  1  0  0  0  0
  5  6  1  0  0  0  0
  5  7  2  0  0  0  0
  7  8  1  0  0  0  0
  7  9  1  0  0  0  0
  9 10  1  0  0  0  0
 10 11  1  0  0  0  0
 10 12  2  0  0  0  0
  9 13  2  0  0  0  0
 13 14  1  0  0  0  0
 13 15  1  0  0  0  0
 15  4  2  0  0  0  0
 15 16  1  0  0  0  0
M  CHG  4   1  -1   2   1  10   1  11  -1
M  END
> <ChemID>
100369

> <source_casrn>
100-25-4

> <CAS>
100-25-4

> <SMILES>
[O-][N+](=O)c1ccc(cc1)[N+]([O-])=O

> <NAME>
Benzene, 1,4-dinitro-

> <preferred_name>
1,4-Dinitrobenzene

> <iupac>
1,4-dinitrobenzene

> <MPID>
100378

> <dsstox_substance_id>
DTXSID0021836

> <Canonical_QSARr>
[O-][N+](=O)c1ccc(cc1)[N+]([O-])=O

> <InChI_Code_QSARr>
InChI=1S/C6H4N2O4/c9-7(10)5-1-2-6(4-3-5)8(11)12/h1-4H

> <InChI Key_QSARr>
FYFDQJRXFWGIBS-UHFFFAOYSA-N

> <Salt_Solvent>
?

> <Ready_Biodeg>
0.0

$$$$
100373
  -INDIGO-08031722522D

 15 15  0  0  0  0  0  0  0  0999 V2000
    2.4001    1.3856    0.0000 Cl  0  0  0  0  0  0  0  0  0  0  0  0
    1.6000   -0.0000    0.0000 C   0  0  0  0  0  0  0  0  0  0  0  0
    3.2000   -0.0000    0.0000 H   0  0  0  0  0  0  0  0  0  0  0  0
    2.4001   -1.3856    0.0000 H   0  0  0  0  0  0  0  0  0  0  0  0
    0.0000   -0.0000    0.0000 C   0  0  0  0  0  0  0  0  0  0  0  0
   -0.7999    1.3856    0.0000 C   0  0  0  0  0  0  0  0  0  0  0  0
    0.0000    2.7713    0.0000 H   0  0  0  0  0  0  0  0  0  0  0  0
   -2.4001    1.3856    0.0000 C   0  0  0  0  0  0  0  0  0  0  0  0
   -3.2000    2.7713    0.0000 H   0  0  0  0  0  0  0  0  0  0  0  0
   -3.2000   -0.0000    0.0000 C   0  0  0  0  0  0  0  0  0  0  0  0
   -4.8000   -0.0000    0.0000 H   0  0  0  0  0  0  0  0  0  0  0  0
   -2.4001   -1.3856    0.0000 C   0  0  0  0  0  0  0  0  0  0  0  0
   -3.2000   -2.7713    0.0000 H   0  0  0  0  0  0  0  0  0  0  0  0
   -0.8001   -1.3856    0.0000 C   0  0  0  0  0  0  0  0  0  0  0  0
    0.0000   -2.7713    0.0000 H   0  0  0  0  0  0  0  0  0  0  0  0
  1  2  1  0  0  0  0
  2  3  1  0  0  0  0
  2  4  1  0  0  0  0
  2  5  1  0  0  0  0
  5  6  1  0  0  0  0
  6  7  1  0  0  0  0
  6  8  2  0  0  0  0
  8  9  1  0  0  0  0
  8 10  1  0  0  0  0
 10 11  1  0  0  0  0
 10 12  2  0  0  0  0
 12 13  1  0  0  0  0
 12 14  1  0  0  0  0
 14  5  2  0  0  0  0
 14 15  1  0  0  0  0
M  END
> <ChemID>
100373

> <source_casrn>
100-44-7

> <CAS>
100-44-7

> <SMILES>
ClCc1ccccc1

> <NAME>
Benzene, (chloromethyl)-

> <preferred_name>
Benzyl chloride

> <iupac>
(chloromethyl)benzene

> <MPID>
100382

> <dsstox_substance_id>
DTXSID0020153

> <Canonical_QSARr>
ClCc1ccccc1

> <InChI_Code_QSARr>
InChI=1S/C7H7Cl/c8-6-7-4-2-1-3-5-7/h1-5H,6H2

> <InChI Key_QSARr>
KCXMKQUNVWSEMD-UHFFFAOYSA-N

> <Salt_Solvent>
?

> <Ready_Biodeg>
1.0

$$$$
100377
  -INDIGO-08031722522D

 14 14  0  0  0  0  0  0  0  0999 V2000
    2.4000   -1.3856    0.0000 O   0  0  0  0  0  0  0  0  0  0  0  0
    1.6000   -0.0000    0.0000 C   0  0  0  0  0  0  0  0  0  0  0  0
    2.4000    1.3856    0.0000 H   0  0  0  0  0  0  0  0  0  0  0  0
    0.0000   -0.0000    0.0000 C   0  0  0  0  0  0  0  0  0  0  0  0
   -0.8000    1.3856    0.0000 C   0  0  0  0  0  0  0  0  0  0  0  0
    0.0000    2.7713    0.0000 H   0  0  0  0  0  0  0  0  0  0  0  0
   -2.4000    1.3856    0.0000 C   0  0  0  0  0  0  0  0  0  0  0  0
   -3.2000    2.7713    0.0000 H   0  0  0  0  0  0  0  0  0  0  0  0
   -3.2000   -0.0000    0.0000 C   0  0  0  0  0  0  0  0  0  0  0  0
   -4.8000   -0.0000    0.0000 H   0  0  0  0  0  0  0  0  0  0  0  0
   -2.4000   -1.3856    0.0000 C   0  0  0  0  0  0  0  0  0  0  0  0
   -3.2000   -2.7713    0.0000 H   0  0  0  0  0  0  0  0  0  0  0  0
   -0.8000   -1.3856    0.0000 C   0  0  0  0  0  0  0  0  0  0  0  0
    0.0000   -2.7713    0.0000 H   0  0  0  0  0  0  0  0  0  0  0  0
  1  2  2  0  0  0  0
  2  3  1  0  0  0  0
  2  4  1  0  0  0  0
  4  5  1  0  0  0  0
  5  6  1  0  0  0  0
  5  7  2  0  0  0  0
  7  8  1  0  0  0  0
  7  9  1  0  0  0  0
  9 10  1  0  0  0  0
  9 11  2  0  0  0  0
 11 12  1  0  0  0  0
 11 13  1  0  0  0  0
 13  4  2  0  0  0  0
 13 14  1  0  0  0  0
M  END
> <ChemID>
100377

> <source_casrn>
100-52-7

> <CAS>
100-52-7

> <SMILES>
O=Cc1ccccc1

> <NAME>
Benzaldehyde

> <preferred_name>
Benzaldehyde

> <iupac>
benzaldehyde

> <MPID>
100386

> <dsstox_substance_id>
DTXSID8039241

> <Canonical_QSARr>
O=Cc1ccccc1

> <InChI_Code_QSARr>
InChI=1S/C7H6O/c8-6-7-4-2-1-3-5-7/h1-6H

> <InChI Key_QSARr>
HUMNYLRZRPPJDN-UHFFFAOYSA-N

> <Salt_Solvent>
?

> <Ready_Biodeg>
1.0

$$$$
100381
  -INDIGO-08031722522D

 22 24  0  0  0  0  0  0  0  0999 V2000
   -0.0000   -0.0000    0.0000 N   0  0  0  0  0  0  0  0  0  0  0  0
    2.4492   -1.4140    0.0000 C   0  0  0  0  0  0  0  0  0  0  0  0
    3.4779   -2.6395    0.0000 H   0  0  0  0  0  0  0  0  0  0  0  0
    1.4208   -2.6398    0.0000 H   0  0  0  0  0  0  0  0  0  0  0  0
    4.8918   -0.0027    0.0000 N   0  0  0  0  0  0  0  0  0  0  0  0
    4.8969    2.8257    0.0000 C   0  0  0  0  0  0  0  0  0  0  0  0
    5.4450    4.3289    0.0000 H   0  0  0  0  0  0  0  0  0  0  0  0
    6.4723    2.5459    0.0000 H   0  0  0  0  0  0  0  0  0  0  0  0
    2.4478    4.2396    0.0000 N   0  0  0  0  0  0  0  0  0  0  0  0
   -0.0010    2.8221    0.0000 C   0  0  0  0  0  0  0  0  0  0  0  0
   -1.5765    2.5433    0.0000 H   0  0  0  0  0  0  0  0  0  0  0  0
   -0.5495    4.3251    0.0000 H   0  0  0  0  0  0  0  0  0  0  0  0
    2.3695    2.7582    0.0000 C   0  0  0  0  0  0  0  0  0  0  0  0
    1.3099    1.5593    0.0000 H   0  0  0  0  0  0  0  0  0  0  0  0
    1.0162    3.6120    0.0000 H   0  0  0  0  0  0  0  0  0  0  0  0
    2.3542    1.4845    0.0000 N   0  0  0  0  0  0  0  0  0  0  0  0
    3.5158    0.8139    0.0000 C   0  0  0  0  0  0  0  0  0  0  0  0
    3.5222    2.4139    0.0000 H   0  0  0  0  0  0  0  0  0  0  0  0
    4.9078    1.6028    0.0000 H   0  0  0  0  0  0  0  0  0  0  0  0
    1.1731    0.7804    0.0000 C   0  0  0  0  0  0  0  0  0  0  0  0
   -0.2485    1.5144    0.0000 H   0  0  0  0  0  0  0  0  0  0  0  0
    1.1244    2.3795    0.0000 H   0  0  0  0  0  0  0  0  0  0  0  0
  1  2  1  0  0  0  0
  2  3  1  0  0  0  0
  2  4  1  0  0  0  0
  2  5  1  0  0  0  0
  5  6  1  0  0  0  0
  6  7  1  0  0  0  0
  6  8  1  0  0  0  0
  6  9  1  0  0  0  0
  9 10  1  0  0  0  0
 10  1  1  0  0  0  0
 10 11  1  0  0  0  0
 10 12  1  0  0  0  0
  9 13  1  0  0  0  0
 13 14  1  0  0  0  0
 13 15  1  0  0  0  0
 13 16  1  0  0  0  0
 16 17  1  0  0  0  0
 17  5  1  0  0  0  0
 17 18  1  0  0  0  0
 17 19  1  0  0  0  0
 16 20  1  0  0  0  0
 20  1  1  0  0  0  0
 20 21  1  0  0  0  0
 20 22  1  0  0  0  0
M  END
> <ChemID>
100381

> <source_casrn>
100-97-0

> <CAS>
100-97-0

> <SMILES>
N(CN(CN1CN23)C3)(C1)C2

> <NAME>
1,3,5,7-Tetraazatricyclo 3.3.1.13,7 decane

> <preferred_name>
Methenamine

> <iupac>
1,3,5,7-tetraazatricyclo[3.3.1.1~3,7~]decane

> <MPID>
100390

> <dsstox_substance_id>
DTXSID6020692

> <Canonical_QSARr>
C1N2CN3CN1CN(C2)C3

> <InChI_Code_QSARr>
InChI=1S/C6H12N4/c1-7-2-9-4-8(1)5-10(3-7)6-9/h1-6H2

> <InChI Key_QSARr>
VKYKSIONXSXAKP-UHFFFAOYSA-N

> <Salt_Solvent>
?

> <Ready_Biodeg>
1.0

$$$$
100385
  -INDIGO-08031722522D

 25 25  0  0  0  0  0  0  0  0999 V2000
   -2.7714    0.0001    0.0000 C   0  0  0  0  0  0  0  0  0  0  0  0
   -1.3857    0.8000    0.0000 N   0  0  0  0  0  0  0  0  0  0  0  0
   -1.3857    2.4000    0.0000 H   0  0  0  0  0  0  0  0  0  0  0  0
    0.0000    0.0001    0.0000 C   0  0  0  0  0  0  0  0  0  0  0  0
    0.0000   -1.6001    0.0000 C   0  0  0  0  0  0  0  0  0  0  0  0
   -1.3857   -2.4000    0.0000 H   0  0  0  0  0  0  0  0  0  0  0  0
    1.3857   -2.4000    0.0000 C   0  0  0  0  0  0  0  0  0  0  0  0
    1.3857   -4.0000    0.0000 Cl  0  0  0  0  0  0  0  0  0  0  0  0
    2.7712   -1.5999    0.0000 C   0  0  0  0  0  0  0  0  0  0  0  0
    4.1569   -2.4000    0.0000 H   0  0  0  0  0  0  0  0  0  0  0  0
    2.7712    0.0001    0.0000 C   0  0  0  0  0  0  0  0  0  0  0  0
    4.1569    0.8000    0.0000 H   0  0  0  0  0  0  0  0  0  0  0  0
    1.3857    0.8000    0.0000 C   0  0  0  0  0  0  0  0  0  0  0  0
    1.3857    2.4000    0.0000 H   0  0  0  0  0  0  0  0  0  0  0  0
   -2.7714   -1.5999    0.0000 O   0  0  0  0  0  0  0  0  0  0  0  0
   -4.1568    0.8000    0.0000 O   0  0  0  0  0  0  0  0  0  0  0  0
   -5.5425    0.0001    0.0000 C   0  0  0  0  0  0  0  0  0  0  0  0
   -4.9302   -1.4782    0.0000 H   0  0  0  0  0  0  0  0  0  0  0  0
   -6.1549   -1.4782    0.0000 H   0  0  0  0  0  0  0  0  0  0  0  0
   -6.9282    0.8000    0.0000 C   0  0  0  0  0  0  0  0  0  0  0  0
   -8.3139    1.6001    0.0000 C   0  0  0  0  0  0  0  0  0  0  0  0
   -9.6994    2.4000    0.0000 C   0  0  0  0  0  0  0  0  0  0  0  0
  -11.0851    3.2001    0.0000 H   0  0  0  0  0  0  0  0  0  0  0  0
  -11.0851    1.6001    0.0000 H   0  0  0  0  0  0  0  0  0  0  0  0
   -9.6994    4.0000    0.0000 Cl  0  0  0  0  0  0  0  0  0  0  0  0
  1  2  1  0  0  0  0
  2  3  1  0  0  0  0
  2  4  1  0  0  0  0
  4  5  1  0  0  0  0
  5  6  1  0  0  0  0
  5  7  2  0  0  0  0
  7  8  1  0  0  0  0
  7  9  1  0  0  0  0
  9 10  1  0  0  0  0
  9 11  2  0  0  0  0
 11 12  1  0  0  0  0
 11 13  1  0  0  0  0
 13  4  2  0  0  0  0
 13 14  1  0  0  0  0
  1 15  2  0  0  0  0
  1 16  1  0  0  0  0
 16 17  1  0  0  0  0
 17 18  1  0  0  0  0
 17 19  1  0  0  0  0
 17 20  1  0  0  0  0
 20 21  3  0  0  0  0
 21 22  1  0  0  0  0
 22 23  1  0  0  0  0
 22 24  1  0  0  0  0
 22 25  1  0  0  0  0
M  END
> <ChemID>
100385

> <source_casrn>
101-27-9

> <CAS>
101-27-9

> <SMILES>
O=C(Nc1cc(Cl)ccc1)OCC#CCCl

> <NAME>
Barban

> <preferred_name>
Barban

> <iupac>
4-chlorobut-2-yn-1-yl (3-chlorophenyl)carbamate

> <MPID>
100394

> <dsstox_substance_id>
DTXSID3041617

> <Canonical_QSARr>
O=C(Nc1cc(Cl)ccc1)OCC#CCCl

> <InChI_Code_QSARr>
InChI=1S/C11H9Cl2NO2/c12-6-1-2-7-16-11(15)14-10-5-3-4-9(13)8-10/h3-5,8H,6-7H2,(H,14,15)

> <InChI Key_QSARr>
MCOQHIWZJUDQIC-UHFFFAOYSA-N

> <Salt_Solvent>
?

> <Ready_Biodeg>
0.0

$$$$
100389
  -INDIGO-08031722522D

 35 36  0  0  0  0  0  0  0  0999 V2000
   -6.9282    2.4000    0.0000 N   0  0  0  0  0  0  0  0  0  0  0  0
   -6.6504    3.9757    0.0000 H   0  0  0  0  0  0  0  0  0  0  0  0
   -8.5039    2.1222    0.0000 C   0  0  0  0  0  0  0  0  0  0  0  0
   -9.0511    0.6187    0.0000 C   0  0  0  0  0  0  0  0  0  0  0  0
   -8.0226   -0.6070    0.0000 H   0  0  0  0  0  0  0  0  0  0  0  0
  -10.6268    0.3408    0.0000 C   0  0  0  0  0  0  0  0  0  0  0  0
  -11.1740   -1.1627    0.0000 H   0  0  0  0  0  0  0  0  0  0  0  0
  -11.6553    1.5665    0.0000 C   0  0  0  0  0  0  0  0  0  0  0  0
  -13.2310    1.2887    0.0000 H   0  0  0  0  0  0  0  0  0  0  0  0
  -11.1081    3.0700    0.0000 C   0  0  0  0  0  0  0  0  0  0  0  0
  -12.1366    4.2957    0.0000 H   0  0  0  0  0  0  0  0  0  0  0  0
   -9.5324    3.3479    0.0000 C   0  0  0  0  0  0  0  0  0  0  0  0
   -8.9852    4.8513    0.0000 H   0  0  0  0  0  0  0  0  0  0  0  0
   -5.5425    1.6000    0.0000 C   0  0  0  0  0  0  0  0  0  0  0  0
   -4.1568    2.4000    0.0000 C   0  0  0  0  0  0  0  0  0  0  0  0
   -4.1568    4.0000    0.0000 H   0  0  0  0  0  0  0  0  0  0  0  0
   -2.7713    1.6000    0.0000 C   0  0  0  0  0  0  0  0  0  0  0  0
   -1.3856    2.4000    0.0000 H   0  0  0  0  0  0  0  0  0  0  0  0
   -2.7713    0.0000    0.0000 C   0  0  0  0  0  0  0  0  0  0  0  0
   -1.3856   -0.8000    0.0000 N   0  0  0  0  0  0  0  0  0  0  0  0
   -1.3856   -2.4000    0.0000 H   0  0  0  0  0  0  0  0  0  0  0  0
    0.0001    0.0000    0.0000 C   0  0  0  0  0  0  0  0  0  0  0  0
   -0.8001    1.3857    0.0000 H   0  0  0  0  0  0  0  0  0  0  0  0
    1.3856    0.8000    0.0000 C   0  0  0  0  0  0  0  0  0  0  0  0
    2.7713    1.6000    0.0000 H   0  0  0  0  0  0  0  0  0  0  0  0
    2.7713    0.0000    0.0000 H   0  0  0  0  0  0  0  0  0  0  0  0
    1.3856    2.4000    0.0000 H   0  0  0  0  0  0  0  0  0  0  0  0
    0.8000   -1.3856    0.0000 C   0  0  0  0  0  0  0  0  0  0  0  0
    1.6000   -2.7713    0.0000 H   0  0  0  0  0  0  0  0  0  0  0  0
    2.3999   -1.3856    0.0000 H   0  0  0  0  0  0  0  0  0  0  0  0
    0.0001   -2.7713    0.0000 H   0  0  0  0  0  0  0  0  0  0  0  0
   -4.1568   -0.8000    0.0000 C   0  0  0  0  0  0  0  0  0  0  0  0
   -4.1568   -2.4000    0.0000 H   0  0  0  0  0  0  0  0  0  0  0  0
   -5.5425    0.0000    0.0000 C   0  0  0  0  0  0  0  0  0  0  0  0
   -6.9282   -0.8000    0.0000 H   0  0  0  0  0  0  0  0  0  0  0  0
  1  2  1  0  0  0  0
  1  3  1  0  0  0  0
  3  4  1  0  0  0  0
  4  5  1  0  0  0  0
  4  6  2  0  0  0  0
  6  7  1  0  0  0  0
  6  8  1  0  0  0  0
  8  9  1  0  0  0  0
  8 10  2  0  0  0  0
 10 11  1  0  0  0  0
 10 12  1  0  0  0  0
 12  3  2  0  0  0  0
 12 13  1  0  0  0  0
  1 14  1  0  0  0  0
 14 15  1  0  0  0  0
 15 16  1  0  0  0  0
 15 17  2  0  0  0  0
 17 18  1  0  0  0  0
 17 19  1  0  0  0  0
 19 20  1  0  0  0  0
 20 21  1  0  0  0  0
 20 22  1  0  0  0  0
 22 23  1  0  0  0  0
 22 24  1  0  0  0  0
 24 25  1  0  0  0  0
 24 26  1  0  0  0  0
 24 27  1  0  0  0  0
 22 28  1  0  0  0  0
 28 29  1  0  0  0  0
 28 30  1  0  0  0  0
 28 31  1  0  0  0  0
 19 32  2  0  0  0  0
 32 33  1  0  0  0  0
 32 34  1  0  0  0  0
 34 14  2  0  0  0  0
 34 35  1  0  0  0  0
M  END
> <ChemID>
100389

> <source_casrn>
101-72-4

> <CAS>
101-72-4

> <SMILES>
CC(C)Nc1ccc(cc1)Nc1ccccc1

> <NAME>
1,4-Benzenediamine, N-(1-methylethyl)-N'-phenyl-

> <preferred_name>
N-Isopropyl-N'-phenyl-p-phenylenediamine

> <iupac>
N-phenyl-N'-(propan-2-yl)benzene-1,4-diamine

> <MPID>
100398

> <dsstox_substance_id>
DTXSID1025485

> <Canonical_QSARr>
CC(C)Nc1ccc(cc1)Nc1ccccc1

> <InChI_Code_QSARr>
InChI=1S/C15H18N2/c1-12(2)16-14-8-10-15(11-9-14)17-13-6-4-3-5-7-13/h3-12,16-17H,1-2H3

> <InChI Key_QSARr>
OUBMGJOQLXMSNT-UHFFFAOYSA-N

> <Salt_Solvent>
?

> <Ready_Biodeg>
0.0

$$$$
100393
  -INDIGO-08031722522D

 36 37  0  0  0  0  0  0  0  0999 V2000
   -1.2256    1.0284    0.0000 N   0  0  0  0  0  0  0  0  0  0  0  0
   -0.6784    2.5319    0.0000 H   0  0  0  0  0  0  0  0  0  0  0  0
   -2.8013    0.7507    0.0000 C   0  0  0  0  0  0  0  0  0  0  0  0
   -2.0013   -0.6350    0.0000 H   0  0  0  0  0  0  0  0  0  0  0  0
   -4.0269   -0.2778    0.0000 C   0  0  0  0  0  0  0  0  0  0  0  0
   -2.8013   -1.3063    0.0000 H   0  0  0  0  0  0  0  0  0  0  0  0
   -4.8270   -1.6634    0.0000 H   0  0  0  0  0  0  0  0  0  0  0  0
   -5.5305    0.2694    0.0000 C   0  0  0  0  0  0  0  0  0  0  0  0
   -5.8083   -1.3063    0.0000 H   0  0  0  0  0  0  0  0  0  0  0  0
   -7.1305    0.2694    0.0000 H   0  0  0  0  0  0  0  0  0  0  0  0
   -5.8083    1.8451    0.0000 C   0  0  0  0  0  0  0  0  0  0  0  0
   -7.3119    1.2978    0.0000 H   0  0  0  0  0  0  0  0  0  0  0  0
   -6.6084    3.2308    0.0000 H   0  0  0  0  0  0  0  0  0  0  0  0
   -4.5827    2.8736    0.0000 C   0  0  0  0  0  0  0  0  0  0  0  0
   -5.8083    3.9020    0.0000 H   0  0  0  0  0  0  0  0  0  0  0  0
   -3.7826    4.2592    0.0000 H   0  0  0  0  0  0  0  0  0  0  0  0
   -3.0791    2.3263    0.0000 C   0  0  0  0  0  0  0  0  0  0  0  0
   -2.8013    3.9020    0.0000 H   0  0  0  0  0  0  0  0  0  0  0  0
   -1.4792    2.3263    0.0000 H   0  0  0  0  0  0  0  0  0  0  0  0
    0.0000    0.0000    0.0000 C   0  0  0  0  0  0  0  0  0  0  0  0
   -1.2256   -1.0285    0.0000 H   0  0  0  0  0  0  0  0  0  0  0  0
    0.8001    1.3856    0.0000 C   0  0  0  0  0  0  0  0  0  0  0  0
   -0.7757    1.6635    0.0000 H   0  0  0  0  0  0  0  0  0  0  0  0
    1.0779    2.9613    0.0000 H   0  0  0  0  0  0  0  0  0  0  0  0
    2.4000    1.3856    0.0000 C   0  0  0  0  0  0  0  0  0  0  0  0
    2.1222    2.9613    0.0000 H   0  0  0  0  0  0  0  0  0  0  0  0
    3.9036    1.9329    0.0000 H   0  0  0  0  0  0  0  0  0  0  0  0
    3.2001    0.0000    0.0000 C   0  0  0  0  0  0  0  0  0  0  0  0
    4.4257    1.0284    0.0000 H   0  0  0  0  0  0  0  0  0  0  0  0
    4.4257   -1.0285    0.0000 H   0  0  0  0  0  0  0  0  0  0  0  0
    2.4000   -1.3857    0.0000 C   0  0  0  0  0  0  0  0  0  0  0  0
    3.9036   -1.9328    0.0000 H   0  0  0  0  0  0  0  0  0  0  0  0
    2.1222   -2.9613    0.0000 H   0  0  0  0  0  0  0  0  0  0  0  0
    0.8001   -1.3857    0.0000 C   0  0  0  0  0  0  0  0  0  0  0  0
    1.0779   -2.9613    0.0000 H   0  0  0  0  0  0  0  0  0  0  0  0
   -0.7035   -1.9328    0.0000 H   0  0  0  0  0  0  0  0  0  0  0  0
  1  2  1  0  0  0  0
  1  3  1  0  0  0  0
  3  4  1  0  0  0  0
  3  5  1  0  0  0  0
  5  6  1  0  0  0  0
  5  7  1  0  0  0  0
  5  8  1  0  0  0  0
  8  9  1  0  0  0  0
  8 10  1  0  0  0  0
  8 11  1  0  0  0  0
 11 12  1  0  0  0  0
 11 13  1  0  0  0  0
 11 14  1  0  0  0  0
 14 15  1  0  0  0  0
 14 16  1  0  0  0  0
 14 17  1  0  0  0  0
 17  3  1  0  0  0  0
 17 18  1  0  0  0  0
 17 19  1  0  0  0  0
  1 20  1  0  0  0  0
 20 21  1  0  0  0  0
 20 22  1  0  0  0  0
 22 23  1  0  0  0  0
 22 24  1  0  0  0  0
 22 25  1  0  0  0  0
 25 26  1  0  0  0  0
 25 27  1  0  0  0  0
 25 28  1  0  0  0  0
 28 29  1  0  0  0  0
 28 30  1  0  0  0  0
 28 31  1  0  0  0  0
 31 32  1  0  0  0  0
 31 33  1  0  0  0  0
 31 34  1  0  0  0  0
 34 20  1  0  0  0  0
 34 35  1  0  0  0  0
 34 36  1  0  0  0  0
M  END
> <ChemID>
100393

> <source_casrn>
101-83-7

> <CAS>
101-83-7

> <SMILES>
C1CCCCC1NC1CCCCC1

> <NAME>
Cyclohexanamine, N-cyclohexyl-

> <preferred_name>
Dicyclohexylamine

> <iupac>
N-cyclohexylcyclohexanamine

> <MPID>
100402

> <dsstox_substance_id>
DTXSID6025018

> <Canonical_QSARr>
C1CCCCC1NC1CCCCC1

> <InChI_Code_QSARr>
InChI=1S/C12H23N/c1-3-7-11(8-4-1)13-12-9-5-2-6-10-12/h11-13H,1-10H2

> <InChI Key_QSARr>
XBPCUCUWBYBCDP-UHFFFAOYSA-N

> <Salt_Solvent>
?

> <Ready_Biodeg>
1.0

$$$$
100397
  -INDIGO-08031722522D

 25 24  0  0  0  0  0  0  0  0999 V2000
    0.0001    0.0001    0.0000 N   0  0  0  0  0  0  0  0  0  0  0  0
    1.3857    0.8000    0.0000 C   0  0  0  0  0  0  0  0  0  0  0  0
    2.9720    0.5911    0.0000 H   0  0  0  0  0  0  0  0  0  0  0  0
    2.3597   -0.4694    0.0000 H   0  0  0  0  0  0  0  0  0  0  0  0
    1.3857    2.4000    0.0000 C   0  0  0  0  0  0  0  0  0  0  0  0
    0.0001    3.2001    0.0000 H   0  0  0  0  0  0  0  0  0  0  0  0
    2.7713    3.2001    0.0000 C   0  0  0  0  0  0  0  0  0  0  0  0
    2.7713    4.8000    0.0000 H   0  0  0  0  0  0  0  0  0  0  0  0
    4.1569    2.4000    0.0000 H   0  0  0  0  0  0  0  0  0  0  0  0
   -1.3857    0.8000    0.0000 C   0  0  0  0  0  0  0  0  0  0  0  0
   -1.9980    2.2782    0.0000 H   0  0  0  0  0  0  0  0  0  0  0  0
   -0.7734    2.2782    0.0000 H   0  0  0  0  0  0  0  0  0  0  0  0
   -2.7713    0.0001    0.0000 C   0  0  0  0  0  0  0  0  0  0  0  0
   -2.7713   -1.6000    0.0000 H   0  0  0  0  0  0  0  0  0  0  0  0
   -4.1569    0.8000    0.0000 C   0  0  0  0  0  0  0  0  0  0  0  0
   -5.5426    0.0001    0.0000 H   0  0  0  0  0  0  0  0  0  0  0  0
   -4.1569    2.4000    0.0000 H   0  0  0  0  0  0  0  0  0  0  0  0
    0.0001   -1.6000    0.0000 C   0  0  0  0  0  0  0  0  0  0  0  0
   -0.9740   -2.8693    0.0000 H   0  0  0  0  0  0  0  0  0  0  0  0
   -1.5863   -1.8089    0.0000 H   0  0  0  0  0  0  0  0  0  0  0  0
    1.3857   -2.4000    0.0000 C   0  0  0  0  0  0  0  0  0  0  0  0
    2.7713   -1.6000    0.0000 H   0  0  0  0  0  0  0  0  0  0  0  0
    1.3857   -4.0000    0.0000 C   0  0  0  0  0  0  0  0  0  0  0  0
    2.7713   -4.8000    0.0000 H   0  0  0  0  0  0  0  0  0  0  0  0
    0.0001   -4.8000    0.0000 H   0  0  0  0  0  0  0  0  0  0  0  0
  1  2  1  0  0  0  0
  2  3  1  0  0  0  0
  2  4  1  0  0  0  0
  2  5  1  0  0  0  0
  5  6  1  0  0  0  0
  5  7  2  0  0  0  0
  7  8  1  0  0  0  0
  7  9  1  0  0  0  0
  1 10  1  0  0  0  0
 10 11  1  0  0  0  0
 10 12  1  0  0  0  0
 10 13  1  0  0  0  0
 13 14  1  0  0  0  0
 13 15  2  0  0  0  0
 15 16  1  0  0  0  0
 15 17  1  0  0  0  0
  1 18  1  0  0  0  0
 18 19  1  0  0  0  0
 18 20  1  0  0  0  0
 18 21  1  0  0  0  0
 21 22  1  0  0  0  0
 21 23  2  0  0  0  0
 23 24  1  0  0  0  0
 23 25  1  0  0  0  0
M  END
> <ChemID>
100397

> <source_casrn>
102-70-5

> <CAS>
102-70-5

> <SMILES>
C=CCN(CC=C)CC=C

> <NAME>
2-Propen-1-amine, N,N-di-2-propenyl-

> <preferred_name>
Triallylamine

> <iupac>
N,N-di(prop-2-en-1-yl)prop-2-en-1-amine

> <MPID>
100407

> <dsstox_substance_id>
DTXSID5026174

> <Canonical_QSARr>
C=CCN(CC=C)CC=C

> <InChI_Code_QSARr>
InChI=1S/C9H15N/c1-4-7-10(8-5-2)9-6-3/h4-6H,1-3,7-9H2

> <InChI Key_QSARr>
VPYJNCGUESNPMV-UHFFFAOYSA-N

> <Salt_Solvent>
?

> <Ready_Biodeg>
0.0

$$$$
100401
  -INDIGO-08031722522D

 33 32  0  0  0  0  0  0  0  0999 V2000
   -2.3999    4.1569    0.0000 O   0  0  0  0  0  0  0  0  0  0  0  0
   -3.2000    2.7713    0.0000 C   0  0  0  0  0  0  0  0  0  0  0  0
   -2.3999    1.3857    0.0000 O   0  0  0  0  0  0  0  0  0  0  0  0
   -0.8000    1.3857    0.0000 C   0  0  0  0  0  0  0  0  0  0  0  0
   -0.5911    2.9720    0.0000 H   0  0  0  0  0  0  0  0  0  0  0  0
    0.4693    2.3596    0.0000 H   0  0  0  0  0  0  0  0  0  0  0  0
   -0.0001    0.0000    0.0000 C   0  0  0  0  0  0  0  0  0  0  0  0
    0.8000   -1.3856    0.0000 H   0  0  0  0  0  0  0  0  0  0  0  0
    1.5035    0.5472    0.0000 C   0  0  0  0  0  0  0  0  0  0  0  0
    1.7124   -1.0390    0.0000 H   0  0  0  0  0  0  0  0  0  0  0  0
    2.7729   -0.4268    0.0000 H   0  0  0  0  0  0  0  0  0  0  0  0
    2.5320    1.7729    0.0000 C   0  0  0  0  0  0  0  0  0  0  0  0
    2.6018    3.3714    0.0000 H   0  0  0  0  0  0  0  0  0  0  0  0
    1.4511    2.9526    0.0000 H   0  0  0  0  0  0  0  0  0  0  0  0
    4.1078    1.4950    0.0000 C   0  0  0  0  0  0  0  0  0  0  0  0
    4.0379   -0.1034    0.0000 H   0  0  0  0  0  0  0  0  0  0  0  0
    5.1887    0.3154    0.0000 H   0  0  0  0  0  0  0  0  0  0  0  0
    5.1361    2.7207    0.0000 C   0  0  0  0  0  0  0  0  0  0  0  0
    6.1646    3.9464    0.0000 H   0  0  0  0  0  0  0  0  0  0  0  0
    6.7118    2.4428    0.0000 H   0  0  0  0  0  0  0  0  0  0  0  0
    4.5888    4.2243    0.0000 H   0  0  0  0  0  0  0  0  0  0  0  0
   -1.2256   -1.0285    0.0000 C   0  0  0  0  0  0  0  0  0  0  0  0
   -2.8240   -1.0982    0.0000 H   0  0  0  0  0  0  0  0  0  0  0  0
   -2.4052    0.0526    0.0000 H   0  0  0  0  0  0  0  0  0  0  0  0
   -0.9479   -2.6042    0.0000 C   0  0  0  0  0  0  0  0  0  0  0  0
   -0.6700   -4.1798    0.0000 H   0  0  0  0  0  0  0  0  0  0  0  0
   -2.1734   -3.6326    0.0000 H   0  0  0  0  0  0  0  0  0  0  0  0
    0.5557   -3.1515    0.0000 H   0  0  0  0  0  0  0  0  0  0  0  0
   -4.8000    2.7713    0.0000 C   0  0  0  0  0  0  0  0  0  0  0  0
   -5.6000    1.3857    0.0000 H   0  0  0  0  0  0  0  0  0  0  0  0
   -5.6000    4.1569    0.0000 C   0  0  0  0  0  0  0  0  0  0  0  0
   -7.2000    4.1569    0.0000 H   0  0  0  0  0  0  0  0  0  0  0  0
   -4.8000    5.5426    0.0000 H   0  0  0  0  0  0  0  0  0  0  0  0
  1  2  2  0  0  0  0
  2  3  1  0  0  0  0
  3  4  1  0  0  0  0
  4  5  1  0  0  0  0
  4  6  1  0  0  0  0
  4  7  1  0  0  0  0
  7  8  1  0  0  0  0
  7  9  1  0  0  0  0
  9 10  1  0  0  0  0
  9 11  1  0  0  0  0
  9 12  1  0  0  0  0
 12 13  1  0  0  0  0
 12 14  1  0  0  0  0
 12 15  1  0  0  0  0
 15 16  1  0  0  0  0
 15 17  1  0  0  0  0
 15 18  1  0  0  0  0
 18 19  1  0  0  0  0
 18 20  1  0  0  0  0
 18 21  1  0  0  0  0
  7 22  1  0  0  0  0
 22 23  1  0  0  0  0
 22 24  1  0  0  0  0
 22 25  1  0  0  0  0
 25 26  1  0  0  0  0
 25 27  1  0  0  0  0
 25 28  1  0  0  0  0
  2 29  1  0  0  0  0
 29 30  1  0  0  0  0
 29 31  2  0  0  0  0
 31 32  1  0  0  0  0
 31 33  1  0  0  0  0
M  END
> <ChemID>
100401

> <source_casrn>
103-11-7

> <CAS>
103-11-7

> <SMILES>
CCCCC(COC(=O)C=C)CC

> <NAME>
2-Propenoic acid, 2-ethylhexyl ester

> <preferred_name>
2-Ethylhexyl acrylate

> <iupac>
2-ethylhexyl prop-2-enoate

> <MPID>
100411

> <dsstox_substance_id>
DTXSID9025297

> <Canonical_QSARr>
CCCCC(COC(=O)C=C)CC

> <InChI_Code_QSARr>
InChI=1S/C11H20O2/c1-4-7-8-10(5-2)9-13-11(12)6-3/h6,10H,3-5,7-9H2,1-2H3

> <InChI Key_QSARr>
GOXQRTZXKQZDDN-UHFFFAOYSA-N

> <Salt_Solvent>
?

> <Ready_Biodeg>
1.0

$$$$
100405
  -INDIGO-08031722522D

 24 25  0  0  0  0  0  0  0  0999 V2000
    1.3857    0.8000    0.0000 N   0  0  0  0  0  0  0  0  0  0  0  0
    2.7712    0.0000    0.0000 N   0  0  0  0  0  0  0  0  0  0  0  0
    4.1569    0.8000    0.0000 C   0  0  0  0  0  0  0  0  0  0  0  0
    4.1569    2.4000    0.0000 C   0  0  0  0  0  0  0  0  0  0  0  0
    2.7712    3.2001    0.0000 H   0  0  0  0  0  0  0  0  0  0  0  0
    5.5426    3.2001    0.0000 C   0  0  0  0  0  0  0  0  0  0  0  0
    5.5426    4.8000    0.0000 H   0  0  0  0  0  0  0  0  0  0  0  0
    6.9281    2.4000    0.0000 C   0  0  0  0  0  0  0  0  0  0  0  0
    8.3138    3.2001    0.0000 H   0  0  0  0  0  0  0  0  0  0  0  0
    6.9281    0.8000    0.0000 C   0  0  0  0  0  0  0  0  0  0  0  0
    8.3138    0.0000    0.0000 H   0  0  0  0  0  0  0  0  0  0  0  0
    5.5426    0.0000    0.0000 C   0  0  0  0  0  0  0  0  0  0  0  0
    5.5426   -1.6000    0.0000 H   0  0  0  0  0  0  0  0  0  0  0  0
    0.0000    0.0000    0.0000 C   0  0  0  0  0  0  0  0  0  0  0  0
    0.0000   -1.6000    0.0000 C   0  0  0  0  0  0  0  0  0  0  0  0
    1.3857   -2.4001    0.0000 H   0  0  0  0  0  0  0  0  0  0  0  0
   -1.3857   -2.4001    0.0000 C   0  0  0  0  0  0  0  0  0  0  0  0
   -1.3857   -4.0000    0.0000 H   0  0  0  0  0  0  0  0  0  0  0  0
   -2.7712   -1.6000    0.0000 C   0  0  0  0  0  0  0  0  0  0  0  0
   -4.1569   -2.4001    0.0000 H   0  0  0  0  0  0  0  0  0  0  0  0
   -2.7712    0.0000    0.0000 C   0  0  0  0  0  0  0  0  0  0  0  0
   -4.1569    0.8000    0.0000 H   0  0  0  0  0  0  0  0  0  0  0  0
   -1.3857    0.8000    0.0000 C   0  0  0  0  0  0  0  0  0  0  0  0
   -1.3857    2.4000    0.0000 H   0  0  0  0  0  0  0  0  0  0  0  0
  1  2  2  0  0  0  0
  2  3  1  0  0  0  0
  3  4  1  0  0  0  0
  4  5  1  0  0  0  0
  4  6  2  0  0  0  0
  6  7  1  0  0  0  0
  6  8  1  0  0  0  0
  8  9  1  0  0  0  0
  8 10  2  0  0  0  0
 10 11  1  0  0  0  0
 10 12  1  0  0  0  0
 12  3  2  0  0  0  0
 12 13  1  0  0  0  0
  1 14  1  0  0  0  0
 14 15  1  0  0  0  0
 15 16  1  0  0  0  0
 15 17  2  0  0  0  0
 17 18  1  0  0  0  0
 17 19  1  0  0  0  0
 19 20  1  0  0  0  0
 19 21  2  0  0  0  0
 21 22  1  0  0  0  0
 21 23  1  0  0  0  0
 23 14  2  0  0  0  0
 23 24  1  0  0  0  0
M  END
> <ChemID>
100405

> <source_casrn>
103-33-3

> <CAS>
103-33-3

> <SMILES>
c1ccccc1N=Nc1ccccc1

> <NAME>
Azobenzene

> <preferred_name>
Azobenzene

> <iupac>
diphenyldiazene

> <MPID>
100415

> <dsstox_substance_id>
DTXSID8020123

> <Canonical_QSARr>
c1ccccc1N=Nc1ccccc1

> <InChI_Code_QSARr>
InChI=1S/C12H10N2/c1-3-7-11(8-4-1)13-14-12-9-5-2-6-10-12/h1-10H/b14-13+

> <InChI Key_QSARr>
DMLAVOWQYNRWNQ-BUHFOSPRSA-N

> <Salt_Solvent>
?

> <Ready_Biodeg>
0.0

$$$$
100409
  -INDIGO-08031722522D

 21 21  0  0  0  0  0  0  0  0999 V2000
   -1.3857   -0.8000    0.0000 C   0  0  0  0  0  0  0  0  0  0  0  0
   -1.3857   -2.4000    0.0000 C   0  0  0  0  0  0  0  0  0  0  0  0
    0.0001   -3.2000    0.0000 H   0  0  0  0  0  0  0  0  0  0  0  0
   -2.7713   -3.2000    0.0000 C   0  0  0  0  0  0  0  0  0  0  0  0
   -2.7713   -4.8000    0.0000 H   0  0  0  0  0  0  0  0  0  0  0  0
   -4.1569   -2.4000    0.0000 C   0  0  0  0  0  0  0  0  0  0  0  0
   -5.5426   -3.2000    0.0000 H   0  0  0  0  0  0  0  0  0  0  0  0
   -4.1569   -0.8000    0.0000 C   0  0  0  0  0  0  0  0  0  0  0  0
   -5.5426   -0.0000    0.0000 H   0  0  0  0  0  0  0  0  0  0  0  0
   -2.7713   -0.0000    0.0000 C   0  0  0  0  0  0  0  0  0  0  0  0
   -2.7713    1.6000    0.0000 H   0  0  0  0  0  0  0  0  0  0  0  0
    0.0001   -0.0000    0.0000 C   0  0  0  0  0  0  0  0  0  0  0  0
    0.6124    1.4782    0.0000 H   0  0  0  0  0  0  0  0  0  0  0  0
   -0.6122    1.4782    0.0000 H   0  0  0  0  0  0  0  0  0  0  0  0
    1.3857   -0.8000    0.0000 C   0  0  0  0  0  0  0  0  0  0  0  0
    0.7734   -2.2782    0.0000 H   0  0  0  0  0  0  0  0  0  0  0  0
    1.9980   -2.2782    0.0000 H   0  0  0  0  0  0  0  0  0  0  0  0
    2.7713   -0.0000    0.0000 C   0  0  0  0  0  0  0  0  0  0  0  0
    4.1569    0.8000    0.0000 H   0  0  0  0  0  0  0  0  0  0  0  0
    4.1569   -0.8000    0.0000 H   0  0  0  0  0  0  0  0  0  0  0  0
    2.7713    1.6000    0.0000 H   0  0  0  0  0  0  0  0  0  0  0  0
  1  2  1  0  0  0  0
  2  3  1  0  0  0  0
  2  4  2  0  0  0  0
  4  5  1  0  0  0  0
  4  6  1  0  0  0  0
  6  7  1  0  0  0  0
  6  8  2  0  0  0  0
  8  9  1  0  0  0  0
  8 10  1  0  0  0  0
 10  1  2  0  0  0  0
 10 11  1  0  0  0  0
  1 12  1  0  0  0  0
 12 13  1  0  0  0  0
 12 14  1  0  0  0  0
 12 15  1  0  0  0  0
 15 16  1  0  0  0  0
 15 17  1  0  0  0  0
 15 18  1  0  0  0  0
 18 19  1  0  0  0  0
 18 20  1  0  0  0  0
 18 21  1  0  0  0  0
M  END
> <ChemID>
100409

> <source_casrn>
103-65-1

> <CAS>
103-65-1

> <SMILES>
CCCc1ccccc1

> <NAME>
N-PROPYLBENZENE

> <preferred_name>
Propylbenzene

> <iupac>
propylbenzene

> <MPID>
100419

> <dsstox_substance_id>
DTXSID3042219

> <Canonical_QSARr>
CCCc1ccccc1

> <InChI_Code_QSARr>
InChI=1S/C9H12/c1-2-6-9-7-4-3-5-8-9/h3-5,7-8H,2,6H2,1H3

> <InChI Key_QSARr>
ODLMAHJVESYWTB-UHFFFAOYSA-N

> <Salt_Solvent>
?

> <Ready_Biodeg>
1.0

$$$$
100413
  -INDIGO-08031722522D

 23 23  0  0  0  0  0  0  0  0999 V2000
    1.3857   -2.4000    0.0000 C   0  0  0  0  0  0  0  0  0  0  0  0
    2.7713   -3.2000    0.0000 H   0  0  0  0  0  0  0  0  0  0  0  0
    1.3857   -4.0000    0.0000 H   0  0  0  0  0  0  0  0  0  0  0  0
    2.7713   -1.6000    0.0000 H   0  0  0  0  0  0  0  0  0  0  0  0
    1.3857   -0.8000    0.0000 N   0  0  0  0  0  0  0  0  0  0  0  0
    2.7713   -0.0000    0.0000 C   0  0  0  0  0  0  0  0  0  0  0  0
    4.1569    0.8000    0.0000 H   0  0  0  0  0  0  0  0  0  0  0  0
    4.1569   -0.8000    0.0000 H   0  0  0  0  0  0  0  0  0  0  0  0
    2.7713    1.6000    0.0000 H   0  0  0  0  0  0  0  0  0  0  0  0
    0.0001   -0.0000    0.0000 C   0  0  0  0  0  0  0  0  0  0  0  0
   -0.6122    1.4782    0.0000 H   0  0  0  0  0  0  0  0  0  0  0  0
    0.6124    1.4782    0.0000 H   0  0  0  0  0  0  0  0  0  0  0  0
   -1.3857   -0.8000    0.0000 C   0  0  0  0  0  0  0  0  0  0  0  0
   -2.7713   -0.0000    0.0000 C   0  0  0  0  0  0  0  0  0  0  0  0
   -2.7713    1.6000    0.0000 H   0  0  0  0  0  0  0  0  0  0  0  0
   -4.1569   -0.8000    0.0000 C   0  0  0  0  0  0  0  0  0  0  0  0
   -5.5426   -0.0000    0.0000 H   0  0  0  0  0  0  0  0  0  0  0  0
   -4.1569   -2.4000    0.0000 C   0  0  0  0  0  0  0  0  0  0  0  0
   -5.5426   -3.2000    0.0000 H   0  0  0  0  0  0  0  0  0  0  0  0
   -2.7713   -3.2000    0.0000 C   0  0  0  0  0  0  0  0  0  0  0  0
   -2.7713   -4.8000    0.0000 H   0  0  0  0  0  0  0  0  0  0  0  0
   -1.3857   -2.4000    0.0000 C   0  0  0  0  0  0  0  0  0  0  0  0
    0.0001   -3.2000    0.0000 H   0  0  0  0  0  0  0  0  0  0  0  0
  1  2  1  0  0  0  0
  1  3  1  0  0  0  0
  1  4  1  0  0  0  0
  1  5  1  0  0  0  0
  5  6  1  0  0  0  0
  6  7  1  0  0  0  0
  6  8  1  0  0  0  0
  6  9  1  0  0  0  0
  5 10  1  0  0  0  0
 10 11  1  0  0  0  0
 10 12  1  0  0  0  0
 10 13  1  0  0  0  0
 13 14  1  0  0  0  0
 14 15  1  0  0  0  0
 14 16  2  0  0  0  0
 16 17  1  0  0  0  0
 16 18  1  0  0  0  0
 18 19  1  0  0  0  0
 18 20  2  0  0  0  0
 20 21  1  0  0  0  0
 20 22  1  0  0  0  0
 22 13  2  0  0  0  0
 22 23  1  0  0  0  0
M  END
> <ChemID>
100413

> <source_casrn>
103-83-3

> <CAS>
103-83-3

> <SMILES>
CN(C)Cc1ccccc1

> <NAME>
Benzenemethanamine, N,N-dimethyl-

> <preferred_name>
N,N-Dimethylbenzylamine

> <iupac>
N,N-dimethyl-1-phenylmethanamine

> <MPID>
100423

> <dsstox_substance_id>
DTXSID8021854

> <Canonical_QSARr>
CN(C)Cc1ccccc1

> <InChI_Code_QSARr>
InChI=1S/C9H13N/c1-10(2)8-9-6-4-3-5-7-9/h3-7H,8H2,1-2H3

> <InChI Key_QSARr>
XXBDWLFCJWSEKW-UHFFFAOYSA-N

> <Salt_Solvent>
?

> <Ready_Biodeg>
0.0

$$$$
100417
  -INDIGO-08031722522D

 50 50  0  0  0  0  0  0  0  0999 V2000
   12.4708    2.4000    0.0000 N   0  0  0  0  0  0  0  0  0  0  0  0
   13.8564    1.6000    0.0000 H   0  0  0  0  0  0  0  0  0  0  0  0
   12.4708    4.0000    0.0000 H   0  0  0  0  0  0  0  0  0  0  0  0
   11.0851    1.6000    0.0000 C   0  0  0  0  0  0  0  0  0  0  0  0
    9.6995    2.4000    0.0000 C   0  0  0  0  0  0  0  0  0  0  0  0
    9.6995    4.0000    0.0000 H   0  0  0  0  0  0  0  0  0  0  0  0
    8.3138    1.6000    0.0000 C   0  0  0  0  0  0  0  0  0  0  0  0
    6.9282    2.4000    0.0000 H   0  0  0  0  0  0  0  0  0  0  0  0
    8.3138    0.0000    0.0000 C   0  0  0  0  0  0  0  0  0  0  0  0
    6.9282   -0.8000    0.0000 C   0  0  0  0  0  0  0  0  0  0  0  0
    7.5403   -2.2782    0.0000 H   0  0  0  0  0  0  0  0  0  0  0  0
    6.3161   -2.2782    0.0000 H   0  0  0  0  0  0  0  0  0  0  0  0
    5.5426    0.0000    0.0000 C   0  0  0  0  0  0  0  0  0  0  0  0
    4.9304    1.4782    0.0000 H   0  0  0  0  0  0  0  0  0  0  0  0
    6.1547    1.4782    0.0000 H   0  0  0  0  0  0  0  0  0  0  0  0
    4.1569   -0.8000    0.0000 C   0  0  0  0  0  0  0  0  0  0  0  0
    4.7690   -2.2782    0.0000 H   0  0  0  0  0  0  0  0  0  0  0  0
    3.5448   -2.2782    0.0000 H   0  0  0  0  0  0  0  0  0  0  0  0
    2.7713    0.0000    0.0000 C   0  0  0  0  0  0  0  0  0  0  0  0
    2.1592    1.4782    0.0000 H   0  0  0  0  0  0  0  0  0  0  0  0
    3.3834    1.4782    0.0000 H   0  0  0  0  0  0  0  0  0  0  0  0
    1.3856   -0.8000    0.0000 C   0  0  0  0  0  0  0  0  0  0  0  0
    1.9978   -2.2782    0.0000 H   0  0  0  0  0  0  0  0  0  0  0  0
    0.7735   -2.2782    0.0000 H   0  0  0  0  0  0  0  0  0  0  0  0
    0.0000    0.0000    0.0000 C   0  0  0  0  0  0  0  0  0  0  0  0
   -0.6121    1.4782    0.0000 H   0  0  0  0  0  0  0  0  0  0  0  0
    0.6121    1.4782    0.0000 H   0  0  0  0  0  0  0  0  0  0  0  0
   -1.3856   -0.8000    0.0000 C   0  0  0  0  0  0  0  0  0  0  0  0
   -0.7735   -2.2782    0.0000 H   0  0  0  0  0  0  0  0  0  0  0  0
   -1.9978   -2.2782    0.0000 H   0  0  0  0  0  0  0  0  0  0  0  0
   -2.7713    0.0000    0.0000 C   0  0  0  0  0  0  0  0  0  0  0  0
   -3.3834    1.4782    0.0000 H   0  0  0  0  0  0  0  0  0  0  0  0
   -2.1592    1.4782    0.0000 H   0  0  0  0  0  0  0  0  0  0  0  0
   -4.1569   -0.8000    0.0000 C   0  0  0  0  0  0  0  0  0  0  0  0
   -3.5448   -2.2782    0.0000 H   0  0  0  0  0  0  0  0  0  0  0  0
   -4.7690   -2.2782    0.0000 H   0  0  0  0  0  0  0  0  0  0  0  0
   -5.5426    0.0000    0.0000 C   0  0  0  0  0  0  0  0  0  0  0  0
   -6.1547    1.4782    0.0000 H   0  0  0  0  0  0  0  0  0  0  0  0
   -4.9304    1.4782    0.0000 H   0  0  0  0  0  0  0  0  0  0  0  0
   -6.9282   -0.8000    0.0000 C   0  0  0  0  0  0  0  0  0  0  0  0
   -6.3161   -2.2782    0.0000 H   0  0  0  0  0  0  0  0  0  0  0  0
   -7.5403   -2.2782    0.0000 H   0  0  0  0  0  0  0  0  0  0  0  0
   -8.3138    0.0000    0.0000 C   0  0  0  0  0  0  0  0  0  0  0  0
   -9.6995    0.8000    0.0000 H   0  0  0  0  0  0  0  0  0  0  0  0
   -9.6995   -0.8000    0.0000 H   0  0  0  0  0  0  0  0  0  0  0  0
   -8.3138    1.6000    0.0000 H   0  0  0  0  0  0  0  0  0  0  0  0
    9.6995   -0.8000    0.0000 C   0  0  0  0  0  0  0  0  0  0  0  0
    9.6995   -2.4000    0.0000 H   0  0  0  0  0  0  0  0  0  0  0  0
   11.0851    0.0000    0.0000 C   0  0  0  0  0  0  0  0  0  0  0  0
   12.4708   -0.8000    0.0000 H   0  0  0  0  0  0  0  0  0  0  0  0
  1  2  1  0  0  0  0
  1  3  1  0  0  0  0
  1  4  1  0  0  0  0
  4  5  1  0  0  0  0
  5  6  1  0  0  0  0
  5  7  2  0  0  0  0
  7  8  1  0  0  0  0
  7  9  1  0  0  0  0
  9 10  1  0  0  0  0
 10 11  1  0  0  0  0
 10 12  1  0  0  0  0
 10 13  1  0  0  0  0
 13 14  1  0  0  0  0
 13 15  1  0  0  0  0
 13 16  1  0  0  0  0
 16 17  1  0  0  0  0
 16 18  1  0  0  0  0
 16 19  1  0  0  0  0
 19 20  1  0  0  0  0
 19 21  1  0  0  0  0
 19 22  1  0  0  0  0
 22 23  1  0  0  0  0
 22 24  1  0  0  0  0
 22 25  1  0  0  0  0
 25 26  1  0  0  0  0
 25 27  1  0  0  0  0
 25 28  1  0  0  0  0
 28 29  1  0  0  0  0
 28 30  1  0  0  0  0
 28 31  1  0  0  0  0
 31 32  1  0  0  0  0
 31 33  1  0  0  0  0
 31 34  1  0  0  0  0
 34 35  1  0  0  0  0
 34 36  1  0  0  0  0
 34 37  1  0  0  0  0
 37 38  1  0  0  0  0
 37 39  1  0  0  0  0
 37 40  1  0  0  0  0
 40 41  1  0  0  0  0
 40 42  1  0  0  0  0
 40 43  1  0  0  0  0
 43 44  1  0  0  0  0
 43 45  1  0  0  0  0
 43 46  1  0  0  0  0
  9 47  2  0  0  0  0
 47 48  1  0  0  0  0
 47 49  1  0  0  0  0
 49  4  2  0  0  0  0
 49 50  1  0  0  0  0
M  END
> <ChemID>
100417

> <source_casrn>
104-42-7

> <CAS>
104-42-7

> <SMILES>
CCCCCCCCCCCCc1ccc(N)cc1

> <NAME>
Benzenamine, 4-dodecyl-

> <preferred_name>
4-Dodecylaniline

> <iupac>
4-dodecylaniline

> <MPID>
100427

> <dsstox_substance_id>
DTXSID8021858

> <Canonical_QSARr>
CCCCCCCCCCCCc1ccc(N)cc1

> <InChI_Code_QSARr>
InChI=1S/C18H31N/c1-2-3-4-5-6-7-8-9-10-11-12-17-13-15-18(19)16-14-17/h13-16H,2-12,19H2,1H3

> <InChI Key_QSARr>
KLPPPIIIEMUEGP-UHFFFAOYSA-N

> <Salt_Solvent>
?

> <Ready_Biodeg>
1.0

$$$$
100421
  -INDIGO-08031722522D

 18 18  0  0  0  0  0  0  0  0999 V2000
   -1.6000   -0.0000    0.0000 O   0  0  0  0  0  0  0  0  0  0  0  0
   -0.0000   -0.0000    0.0000 C   0  0  0  0  0  0  0  0  0  0  0  0
    0.7999    1.3856    0.0000 C   0  0  0  0  0  0  0  0  0  0  0  0
   -0.0000    2.7713    0.0000 H   0  0  0  0  0  0  0  0  0  0  0  0
    2.4000    1.3856    0.0000 C   0  0  0  0  0  0  0  0  0  0  0  0
    3.2000    2.7713    0.0000 H   0  0  0  0  0  0  0  0  0  0  0  0
    3.2000   -0.0000    0.0000 C   0  0  0  0  0  0  0  0  0  0  0  0
    4.8000   -0.0000    0.0000 N   0  0  0  0  0  0  0  0  0  0  0  0
    5.6000   -1.3856    0.0000 H   0  0  0  0  0  0  0  0  0  0  0  0
    5.6000    1.3856    0.0000 H   0  0  0  0  0  0  0  0  0  0  0  0
    2.4000   -1.3856    0.0000 C   0  0  0  0  0  0  0  0  0  0  0  0
    3.2000   -2.7713    0.0000 H   0  0  0  0  0  0  0  0  0  0  0  0
    0.8001   -1.3856    0.0000 C   0  0  0  0  0  0  0  0  0  0  0  0
   -0.0000   -2.7713    0.0000 H   0  0  0  0  0  0  0  0  0  0  0  0
   -2.4001    1.3856    0.0000 C   0  0  0  0  0  0  0  0  0  0  0  0
   -4.0000    1.3856    0.0000 H   0  0  0  0  0  0  0  0  0  0  0  0
   -3.2000    2.7713    0.0000 H   0  0  0  0  0  0  0  0  0  0  0  0
   -3.2000   -0.0000    0.0000 H   0  0  0  0  0  0  0  0  0  0  0  0
  1  2  1  0  0  0  0
  2  3  1  0  0  0  0
  3  4  1  0  0  0  0
  3  5  2  0  0  0  0
  5  6  1  0  0  0  0
  5  7  1  0  0  0  0
  7  8  1  0  0  0  0
  8  9  1  0  0  0  0
  8 10  1  0  0  0  0
  7 11  2  0  0  0  0
 11 12  1  0  0  0  0
 11 13  1  0  0  0  0
 13  2  2  0  0  0  0
 13 14  1  0  0  0  0
  1 15  1  0  0  0  0
 15 16  1  0  0  0  0
 15 17  1  0  0  0  0
 15 18  1  0  0  0  0
M  END
> <ChemID>
100421

> <source_casrn>
104-94-9

> <CAS>
104-94-9

> <SMILES>
COc1ccc(N)cc1

> <NAME>
Benzenamine, 4-methoxy-

> <preferred_name>
4-Methoxyaniline

> <iupac>
4-methoxyaniline

> <MPID>
100431

> <dsstox_substance_id>
DTXSID7024532

> <Canonical_QSARr>
COc1ccc(N)cc1

> <InChI_Code_QSARr>
InChI=1S/C7H9NO/c1-9-7-4-2-6(8)3-5-7/h2-5H,8H2,1H3

> <InChI Key_QSARr>
BHAAPTBBJKJZER-UHFFFAOYSA-N

> <Salt_Solvent>
?

> <Ready_Biodeg>
1.0

$$$$
100425
  -INDIGO-08031722522D

 19 19  0  0  0  0  0  0  0  0999 V2000
    1.3856   -2.4000    0.0000 O   0  0  0  0  0  0  0  0  0  0  0  0
    1.3856   -4.0000    0.0000 H   0  0  0  0  0  0  0  0  0  0  0  0
    0.0000   -1.6000    0.0000 C   0  0  0  0  0  0  0  0  0  0  0  0
    0.0000   -0.0000    0.0000 C   0  0  0  0  0  0  0  0  0  0  0  0
    1.3857    0.8000    0.0000 C   0  0  0  0  0  0  0  0  0  0  0  0
    2.7713    1.6000    0.0000 H   0  0  0  0  0  0  0  0  0  0  0  0
    2.7713   -0.0000    0.0000 H   0  0  0  0  0  0  0  0  0  0  0  0
    1.3857    2.4000    0.0000 H   0  0  0  0  0  0  0  0  0  0  0  0
   -1.3857    0.8000    0.0000 C   0  0  0  0  0  0  0  0  0  0  0  0
   -1.3856    2.4000    0.0000 H   0  0  0  0  0  0  0  0  0  0  0  0
   -2.7713   -0.0000    0.0000 C   0  0  0  0  0  0  0  0  0  0  0  0
   -4.1570    0.8000    0.0000 C   0  0  0  0  0  0  0  0  0  0  0  0
   -5.5426    1.6000    0.0000 H   0  0  0  0  0  0  0  0  0  0  0  0
   -5.5426   -0.0000    0.0000 H   0  0  0  0  0  0  0  0  0  0  0  0
   -4.1570    2.4000    0.0000 H   0  0  0  0  0  0  0  0  0  0  0  0
   -2.7713   -1.6000    0.0000 C   0  0  0  0  0  0  0  0  0  0  0  0
   -4.1570   -2.4000    0.0000 H   0  0  0  0  0  0  0  0  0  0  0  0
   -1.3857   -2.4000    0.0000 C   0  0  0  0  0  0  0  0  0  0  0  0
   -1.3856   -4.0000    0.0000 H   0  0  0  0  0  0  0  0  0  0  0  0
  1  2  1  0  0  0  0
  1  3  1  0  0  0  0
  3  4  1  0  0  0  0
  4  5  1  0  0  0  0
  5  6  1  0  0  0  0
  5  7  1  0  0  0  0
  5  8  1  0  0  0  0
  4  9  2  0  0  0  0
  9 10  1  0  0  0  0
  9 11  1  0  0  0  0
 11 12  1  0  0  0  0
 12 13  1  0  0  0  0
 12 14  1  0  0  0  0
 12 15  1  0  0  0  0
 11 16  2  0  0  0  0
 16 17  1  0  0  0  0
 16 18  1  0  0  0  0
 18  3  2  0  0  0  0
 18 19  1  0  0  0  0
M  END
> <ChemID>
100425

> <source_casrn>
105-67-9

> <CAS>
105-67-9

> <SMILES>
Cc1cc(C)c(O)cc1

> <NAME>
2,4-Dimethylphenol

> <preferred_name>
2,4-Dimethylphenol

> <iupac>
2,4-dimethylphenol

> <MPID>
100435

> <dsstox_substance_id>
DTXSID2021864

> <Canonical_QSARr>
Cc1cc(C)c(O)cc1

> <InChI_Code_QSARr>
InChI=1S/C8H10O/c1-6-3-4-8(9)7(2)5-6/h3-5,9H,1-2H3

> <InChI Key_QSARr>
KUFFULVDNCHOFZ-UHFFFAOYSA-N

> <Salt_Solvent>
?

> <Ready_Biodeg>
1.0

$$$$
100429
  -INDIGO-08031722522D

 13 13  0  0  0  0  0  0  0  0999 V2000
   -0.0000   -0.0000    0.0000 C   0  0  0  0  0  0  0  0  0  0  0  0
    0.8000    1.3856    0.0000 O   0  0  0  0  0  0  0  0  0  0  0  0
    2.4000    1.3856    0.0000 H   0  0  0  0  0  0  0  0  0  0  0  0
    0.8000   -1.3857    0.0000 C   0  0  0  0  0  0  0  0  0  0  0  0
    2.4000   -1.3857    0.0000 H   0  0  0  0  0  0  0  0  0  0  0  0
   -0.0000   -2.7713    0.0000 C   0  0  0  0  0  0  0  0  0  0  0  0
    0.8000   -4.1569    0.0000 H   0  0  0  0  0  0  0  0  0  0  0  0
   -1.6000   -2.7713    0.0000 C   0  0  0  0  0  0  0  0  0  0  0  0
   -2.4000   -4.1569    0.0000 Br  0  0  0  0  0  0  0  0  0  0  0  0
   -2.4000   -1.3856    0.0000 C   0  0  0  0  0  0  0  0  0  0  0  0
   -4.0000   -1.3856    0.0000 H   0  0  0  0  0  0  0  0  0  0  0  0
   -1.6000   -0.0000    0.0000 C   0  0  0  0  0  0  0  0  0  0  0  0
   -2.4000    1.3856    0.0000 H   0  0  0  0  0  0  0  0  0  0  0  0
  1  2  1  0  0  0  0
  2  3  1  0  0  0  0
  1  4  1  0  0  0  0
  4  5  1  0  0  0  0
  4  6  2  0  0  0  0
  6  7  1  0  0  0  0
  6  8  1  0  0  0  0
  8  9  1  0  0  0  0
  8 10  2  0  0  0  0
 10 11  1  0  0  0  0
 10 12  1  0  0  0  0
 12  1  2  0  0  0  0
 12 13  1  0  0  0  0
M  END
> <ChemID>
100429

> <source_casrn>
106-41-2

> <CAS>
106-41-2

> <SMILES>
Oc1ccc(Br)cc1

> <NAME>
Phenol, 4-bromo-

> <preferred_name>
4-Bromophenol

> <iupac>
4-bromophenol

> <MPID>
100439

> <dsstox_substance_id>
DTXSID3051543

> <Canonical_QSARr>
Oc1ccc(Br)cc1

> <InChI_Code_QSARr>
InChI=1S/C6H5BrO/c7-5-1-3-6(8)4-2-5/h1-4,8H

> <InChI Key_QSARr>
GZFGOTFRPZRKDS-UHFFFAOYSA-N

> <Salt_Solvent>
?

> <Ready_Biodeg>
0.0

$$$$
100433
  -INDIGO-08031722522D

 14 14  0  0  0  0  0  0  0  0999 V2000
    1.6000   -0.0000    0.0000 N   0  0  0  0  0  0  0  0  0  0  0  0
    2.4000    1.3856    0.0000 H   0  0  0  0  0  0  0  0  0  0  0  0
    2.4000   -1.3856    0.0000 H   0  0  0  0  0  0  0  0  0  0  0  0
    0.0000   -0.0000    0.0000 C   0  0  0  0  0  0  0  0  0  0  0  0
   -0.8000    1.3856    0.0000 C   0  0  0  0  0  0  0  0  0  0  0  0
    0.0000    2.7713    0.0000 H   0  0  0  0  0  0  0  0  0  0  0  0
   -2.4000    1.3856    0.0000 C   0  0  0  0  0  0  0  0  0  0  0  0
   -3.2000    2.7713    0.0000 H   0  0  0  0  0  0  0  0  0  0  0  0
   -3.2000   -0.0000    0.0000 C   0  0  0  0  0  0  0  0  0  0  0  0
   -4.8000   -0.0000    0.0000 Cl  0  0  0  0  0  0  0  0  0  0  0  0
   -2.4000   -1.3856    0.0000 C   0  0  0  0  0  0  0  0  0  0  0  0
   -3.2000   -2.7713    0.0000 H   0  0  0  0  0  0  0  0  0  0  0  0
   -0.8000   -1.3856    0.0000 C   0  0  0  0  0  0  0  0  0  0  0  0
    0.0000   -2.7713    0.0000 H   0  0  0  0  0  0  0  0  0  0  0  0
  1  2  1  0  0  0  0
  1  3  1  0  0  0  0
  1  4  1  0  0  0  0
  4  5  1  0  0  0  0
  5  6  1  0  0  0  0
  5  7  2  0  0  0  0
  7  8  1  0  0  0  0
  7  9  1  0  0  0  0
  9 10  1  0  0  0  0
  9 11  2  0  0  0  0
 11 12  1  0  0  0  0
 11 13  1  0  0  0  0
 13  4  2  0  0  0  0
 13 14  1  0  0  0  0
M  END
> <ChemID>
100433

> <source_casrn>
106-47-8

> <CAS>
106-47-8

> <SMILES>
Nc1ccc(Cl)cc1

> <NAME>
Benzenamine, 4-chloro-

> <preferred_name>
4-Chloroaniline

> <iupac>
4-chloroaniline

> <MPID>
100443

> <dsstox_substance_id>
DTXSID9020295

> <Canonical_QSARr>
Nc1ccc(Cl)cc1

> <InChI_Code_QSARr>
InChI=1S/C6H6ClN/c7-5-1-3-6(8)4-2-5/h1-4H,8H2

> <InChI Key_QSARr>
QSNSCYSYFYORTR-UHFFFAOYSA-N

> <Salt_Solvent>
?

> <Ready_Biodeg>
0.0

$$$$
100437
  -INDIGO-08031722522D

 13 13  0  0  0  0  0  0  0  0999 V2000
    2.7292    0.4812    0.0000 C   0  0  0  0  0  0  0  0  0  0  0  0
    3.9548    1.5097    0.0000 H   0  0  0  0  0  0  0  0  0  0  0  0
    4.2327   -0.0660    0.0000 H   0  0  0  0  0  0  0  0  0  0  0  0
    2.4513    2.0569    0.0000 H   0  0  0  0  0  0  0  0  0  0  0  0
    1.5035   -0.5472    0.0000 C   0  0  0  0  0  0  0  0  0  0  0  0
    2.3632   -1.8967    0.0000 H   0  0  0  0  0  0  0  0  0  0  0  0
    1.1572   -2.1093    0.0000 H   0  0  0  0  0  0  0  0  0  0  0  0
    0.0000    0.0000    0.0000 C   0  0  0  0  0  0  0  0  0  0  0  0
    0.2778    1.5757    0.0000 H   0  0  0  0  0  0  0  0  0  0  0  0
   -1.6000    0.0000    0.0000 C   0  0  0  0  0  0  0  0  0  0  0  0
   -1.8778    1.5757    0.0000 H   0  0  0  0  0  0  0  0  0  0  0  0
   -3.1035   -0.5472    0.0000 H   0  0  0  0  0  0  0  0  0  0  0  0
   -0.8001   -1.3857    0.0000 O   0  0  0  0  0  0  0  0  0  0  0  0
  1  2  1  0  0  0  0
  1  3  1  0  0  0  0
  1  4  1  0  0  0  0
  1  5  1  0  0  0  0
  5  6  1  0  0  0  0
  5  7  1  0  0  0  0
  5  8  1  0  0  0  0
  8  9  1  0  0  0  0
  8 10  1  0  0  0  0
 10 11  1  0  0  0  0
 10 12  1  0  0  0  0
 10 13  1  0  0  0  0
 13  8  1  0  0  0  0
M  END
> <ChemID>
100437

> <source_casrn>
106-88-7

> <CAS>
106-88-7

> <SMILES>
CCC1CO1

> <NAME>
1,2-Butylene oxide

> <preferred_name>
1,2-Epoxybutane

> <iupac>
2-ethyloxirane

> <MPID>
100447

> <dsstox_substance_id>
DTXSID6020569

> <Canonical_QSARr>
CCC1CO1

> <InChI_Code_QSARr>
InChI=1S/C4H8O/c1-2-4-3-5-4/h4H,2-3H2,1H3

> <InChI Key_QSARr>
RBACIKXCRWGCBB-UHFFFAOYSA-N

> <Salt_Solvent>
?

> <Ready_Biodeg>
1.0

$$$$
100441
  -INDIGO-08031722522D

 14 13  0  0  0  0  0  0  0  0999 V2000
    0.0000    0.0000    0.0000 C   0  0  0  0  0  0  0  0  0  0  0  0
    0.6123    1.4782    0.0000 H   0  0  0  0  0  0  0  0  0  0  0  0
   -0.6123    1.4782    0.0000 H   0  0  0  0  0  0  0  0  0  0  0  0
   -1.3856   -0.8000    0.0000 C   0  0  0  0  0  0  0  0  0  0  0  0
   -1.9980   -2.2782    0.0000 H   0  0  0  0  0  0  0  0  0  0  0  0
   -0.7733   -2.2782    0.0000 H   0  0  0  0  0  0  0  0  0  0  0  0
   -2.7713    0.0000    0.0000 C   0  0  0  0  0  0  0  0  0  0  0  0
   -4.1569    0.8000    0.0000 H   0  0  0  0  0  0  0  0  0  0  0  0
   -4.1569   -0.8000    0.0000 H   0  0  0  0  0  0  0  0  0  0  0  0
   -2.7713    1.6000    0.0000 H   0  0  0  0  0  0  0  0  0  0  0  0
    1.3856   -0.8000    0.0000 C   0  0  0  0  0  0  0  0  0  0  0  0
    2.7713   -1.6000    0.0000 H   0  0  0  0  0  0  0  0  0  0  0  0
    2.7713    0.0000    0.0000 H   0  0  0  0  0  0  0  0  0  0  0  0
    1.3856   -2.4000    0.0000 H   0  0  0  0  0  0  0  0  0  0  0  0
  1  2  1  0  0  0  0
  1  3  1  0  0  0  0
  1  4  1  0  0  0  0
  4  5  1  0  0  0  0
  4  6  1  0  0  0  0
  4  7  1  0  0  0  0
  7  8  1  0  0  0  0
  7  9  1  0  0  0  0
  7 10  1  0  0  0  0
  1 11  1  0  0  0  0
 11 12  1  0  0  0  0
 11 13  1  0  0  0  0
 11 14  1  0  0  0  0
M  END
> <ChemID>
100441

> <source_casrn>
106-97-8

> <CAS>
106-97-8

> <SMILES>
CCCC

> <NAME>
Butane

> <preferred_name>
Butane

> <iupac>
C4H10

> <MPID>
100451

> <dsstox_substance_id>
DTXSID7024665

> <Canonical_QSARr>
CCCC

> <InChI_Code_QSARr>
InChI=1S/C4H10/c1-3-4-2/h3-4H2,1-2H3

> <InChI Key_QSARr>
IJDNQMDRQITEOD-UHFFFAOYSA-N

> <Salt_Solvent>
?

> <Ready_Biodeg>
1.0

$$$$
100445
  -INDIGO-08031722522D

  9  8  0  0  0  0  0  0  0  0999 V2000
    2.4000    1.3856    0.0000 Cl  0  0  0  0  0  0  0  0  0  0  0  0
    1.6000    0.0000    0.0000 C   0  0  0  0  0  0  0  0  0  0  0  0
    3.2000    0.0000    0.0000 H   0  0  0  0  0  0  0  0  0  0  0  0
    2.4000   -1.3856    0.0000 H   0  0  0  0  0  0  0  0  0  0  0  0
   -0.0000    0.0000    0.0000 C   0  0  0  0  0  0  0  0  0  0  0  0
   -0.2089   -1.5863    0.0000 H   0  0  0  0  0  0  0  0  0  0  0  0
   -1.2694   -0.9740    0.0000 H   0  0  0  0  0  0  0  0  0  0  0  0
   -0.8000    1.3856    0.0000 O   0  0  0  0  0  0  0  0  0  0  0  0
   -2.4000    1.3856    0.0000 H   0  0  0  0  0  0  0  0  0  0  0  0
  1  2  1  0  0  0  0
  2  3  1  0  0  0  0
  2  4  1  0  0  0  0
  2  5  1  0  0  0  0
  5  6  1  0  0  0  0
  5  7  1  0  0  0  0
  5  8  1  0  0  0  0
  8  9  1  0  0  0  0
M  END
> <ChemID>
100445

> <source_casrn>
107-07-3

> <CAS>
107-07-3

> <SMILES>
OCCCl

> <NAME>
2-CHLOROETHANOL

> <preferred_name>
2-Chloroethanol

> <iupac>
2-chloroethanol

> <MPID>
100455

> <dsstox_substance_id>
DTXSID1021877

> <Canonical_QSARr>
OCCCl

> <InChI_Code_QSARr>
InChI=1S/C2H5ClO/c3-1-2-4/h4H,1-2H2

> <InChI Key_QSARr>
SZIFAVKTNFCBPC-UHFFFAOYSA-N

> <Salt_Solvent>
?

> <Ready_Biodeg>
1.0

$$$$
100449
  -INDIGO-08031722522D

  8  7  0  0  0  0  0  0  0  0999 V2000
    0.0000    0.0000    0.0000 C   0  0  0  0  0  0  0  0  0  0  0  0
    0.2089   -1.5863    0.0000 H   0  0  0  0  0  0  0  0  0  0  0  0
    1.2694   -0.9740    0.0000 H   0  0  0  0  0  0  0  0  0  0  0  0
    0.8000    1.3856    0.0000 O   0  0  0  0  0  0  0  0  0  0  0  0
    2.4000    1.3856    0.0000 H   0  0  0  0  0  0  0  0  0  0  0  0
   -1.6000    0.0000    0.0000 C   0  0  0  0  0  0  0  0  0  0  0  0
   -3.2000    0.0000    0.0000 C   0  0  0  0  0  0  0  0  0  0  0  0
   -4.8000    0.0000    0.0000 H   0  0  0  0  0  0  0  0  0  0  0  0
  1  2  1  0  0  0  0
  1  3  1  0  0  0  0
  1  4  1  0  0  0  0
  4  5  1  0  0  0  0
  1  6  1  0  0  0  0
  6  7  3  0  0  0  0
  7  8  1  0  0  0  0
M  END
> <ChemID>
100449

> <source_casrn>
107-19-7

> <CAS>
107-19-7

> <SMILES>
C#CCO

> <NAME>
Propargyl alcohol

> <preferred_name>
Propargyl alcohol

> <iupac>
prop-2-yn-1-ol

> <MPID>
100459

> <dsstox_substance_id>
DTXSID5021883

> <Canonical_QSARr>
C#CCO

> <InChI_Code_QSARr>
InChI=1S/C3H4O/c1-2-3-4/h1,4H,3H2

> <InChI Key_QSARr>
TVDSBUOJIPERQY-UHFFFAOYSA-N

> <Salt_Solvent>
?

> <Ready_Biodeg>
1.0

$$$$
100453
  -INDIGO-08031722522D

 22 21  0  0  0  0  0  0  0  0999 V2000
    3.5713    1.3857    0.0000 O   0  0  0  0  0  0  0  0  0  0  0  0
    5.1712    1.3857    0.0000 H   0  0  0  0  0  0  0  0  0  0  0  0
    2.7713   -0.0000    0.0000 C   0  0  0  0  0  0  0  0  0  0  0  0
    1.9713   -1.3856    0.0000 H   0  0  0  0  0  0  0  0  0  0  0  0
    1.3856    0.8000    0.0000 C   0  0  0  0  0  0  0  0  0  0  0  0
    0.7733    2.2782    0.0000 H   0  0  0  0  0  0  0  0  0  0  0  0
    1.9979    2.2782    0.0000 H   0  0  0  0  0  0  0  0  0  0  0  0
    0.0000   -0.0000    0.0000 C   0  0  0  0  0  0  0  0  0  0  0  0
   -1.3857   -0.8000    0.0000 C   0  0  0  0  0  0  0  0  0  0  0  0
   -2.7713   -1.6000    0.0000 H   0  0  0  0  0  0  0  0  0  0  0  0
   -2.7713   -0.0000    0.0000 H   0  0  0  0  0  0  0  0  0  0  0  0
   -1.3857   -2.4000    0.0000 H   0  0  0  0  0  0  0  0  0  0  0  0
   -0.8000    1.3857    0.0000 C   0  0  0  0  0  0  0  0  0  0  0  0
   -1.6000    2.7713    0.0000 H   0  0  0  0  0  0  0  0  0  0  0  0
   -0.2527    2.8891    0.0000 H   0  0  0  0  0  0  0  0  0  0  0  0
   -2.4000    1.3857    0.0000 H   0  0  0  0  0  0  0  0  0  0  0  0
    0.8000   -1.3856    0.0000 O   0  0  0  0  0  0  0  0  0  0  0  0
    0.0000   -2.7713    0.0000 H   0  0  0  0  0  0  0  0  0  0  0  0
    4.1569   -0.8000    0.0000 C   0  0  0  0  0  0  0  0  0  0  0  0
    5.5426   -1.6000    0.0000 H   0  0  0  0  0  0  0  0  0  0  0  0
    5.5426   -0.0000    0.0000 H   0  0  0  0  0  0  0  0  0  0  0  0
    4.1569   -2.4000    0.0000 H   0  0  0  0  0  0  0  0  0  0  0  0
  1  2  1  0  0  0  0
  1  3  1  0  0  0  0
  3  4  1  0  0  0  0
  3  5  1  0  0  0  0
  5  6  1  0  0  0  0
  5  7  1  0  0  0  0
  5  8  1  0  0  0  0
  8  9  1  0  0  0  0
  9 10  1  0  0  0  0
  9 11  1  0  0  0  0
  9 12  1  0  0  0  0
  8 13  1  0  0  0  0
 13 14  1  0  0  0  0
 13 15  1  0  0  0  0
 13 16  1  0  0  0  0
  8 17  1  0  0  0  0
 17 18  1  0  0  0  0
  3 19  1  0  0  0  0
 19 20  1  0  0  0  0
 19 21  1  0  0  0  0
 19 22  1  0  0  0  0
M  END
> <ChemID>
100453

> <source_casrn>
107-41-5

> <CAS>
107-41-5

> <SMILES>
CC(O)CC(C)(C)O

> <NAME>
Hexylene glycol

> <preferred_name>
2-Methyl-2,4-pentanediol

> <iupac>
2-methylpentane-2,4-diol

> <MPID>
100463

> <dsstox_substance_id>
DTXSID5021885

> <Canonical_QSARr>
CC(O)CC(C)(C)O

> <InChI_Code_QSARr>
InChI=1S/C6H14O2/c1-5(7)4-6(2,3)8/h5,7-8H,4H2,1-3H3

> <InChI Key_QSARr>
SVTBMSDMJJWYQN-UHFFFAOYSA-N

> <Salt_Solvent>
?

> <Ready_Biodeg>
1.0

$$$$
100457
  -INDIGO-08031722522D

 12 11  0  0  0  0  0  0  0  0999 V2000
    0.0001    0.0000    0.0000 C   0  0  0  0  0  0  0  0  0  0  0  0
    1.3856    0.8000    0.0000 H   0  0  0  0  0  0  0  0  0  0  0  0
    0.0001    1.6000    0.0000 H   0  0  0  0  0  0  0  0  0  0  0  0
    1.3856   -0.8000    0.0000 H   0  0  0  0  0  0  0  0  0  0  0  0
   -1.3856   -0.8000    0.0000 C   0  0  0  0  0  0  0  0  0  0  0  0
   -1.3856   -2.4000    0.0000 O   0  0  0  0  0  0  0  0  0  0  0  0
   -2.7712    0.0000    0.0000 O   0  0  0  0  0  0  0  0  0  0  0  0
   -4.1569   -0.8000    0.0000 C   0  0  0  0  0  0  0  0  0  0  0  0
   -4.1569   -2.4000    0.0000 H   0  0  0  0  0  0  0  0  0  0  0  0
   -5.5425    0.0000    0.0000 C   0  0  0  0  0  0  0  0  0  0  0  0
   -6.9282   -0.8000    0.0000 H   0  0  0  0  0  0  0  0  0  0  0  0
   -5.5425    1.6000    0.0000 H   0  0  0  0  0  0  0  0  0  0  0  0
  1  2  1  0  0  0  0
  1  3  1  0  0  0  0
  1  4  1  0  0  0  0
  1  5  1  0  0  0  0
  5  6  2  0  0  0  0
  5  7  1  0  0  0  0
  7  8  1  0  0  0  0
  8  9  1  0  0  0  0
  8 10  2  0  0  0  0
 10 11  1  0  0  0  0
 10 12  1  0  0  0  0
M  END
> <ChemID>
100457

> <source_casrn>
108-05-4

> <CAS>
108-05-4

> <SMILES>
CC(=O)OC=C

> <NAME>
Acetic acid ethenyl ester

> <preferred_name>
Vinyl acetate

> <iupac>
ethenyl acetate

> <MPID>
100467

> <dsstox_substance_id>
DTXSID3021431

> <Canonical_QSARr>
CC(=O)OC=C

> <InChI_Code_QSARr>
InChI=1S/C4H6O2/c1-3-6-4(2)5/h3H,1H2,2H3

> <InChI Key_QSARr>
XTXRWKRVRITETP-UHFFFAOYSA-N

> <Salt_Solvent>
?

> <Ready_Biodeg>
1.0

$$$$
100461
  -INDIGO-08031722522D

 17 16  0  0  0  0  0  0  0  0999 V2000
   -1.3857    0.8000    0.0000 O   0  0  0  0  0  0  0  0  0  0  0  0
   -0.0001   -0.0000    0.0000 C   0  0  0  0  0  0  0  0  0  0  0  0
    1.3856   -0.8000    0.0000 H   0  0  0  0  0  0  0  0  0  0  0  0
    0.8000    1.3856    0.0000 C   0  0  0  0  0  0  0  0  0  0  0  0
    1.5999    2.7713    0.0000 H   0  0  0  0  0  0  0  0  0  0  0  0
    2.4000    1.3856    0.0000 H   0  0  0  0  0  0  0  0  0  0  0  0
   -0.0001    2.7713    0.0000 H   0  0  0  0  0  0  0  0  0  0  0  0
   -0.5472   -1.5035    0.0000 C   0  0  0  0  0  0  0  0  0  0  0  0
   -1.0945   -3.0070    0.0000 H   0  0  0  0  0  0  0  0  0  0  0  0
    0.4813   -2.7292    0.0000 H   0  0  0  0  0  0  0  0  0  0  0  0
   -2.1230   -1.7813    0.0000 H   0  0  0  0  0  0  0  0  0  0  0  0
   -2.8891    0.2528    0.0000 C   0  0  0  0  0  0  0  0  0  0  0  0
   -4.1149    1.2812    0.0000 C   0  0  0  0  0  0  0  0  0  0  0  0
   -5.3405    2.3097    0.0000 H   0  0  0  0  0  0  0  0  0  0  0  0
   -5.6183    0.7340    0.0000 H   0  0  0  0  0  0  0  0  0  0  0  0
   -3.8370    2.8569    0.0000 H   0  0  0  0  0  0  0  0  0  0  0  0
   -3.1670   -1.3230    0.0000 O   0  0  0  0  0  0  0  0  0  0  0  0
  1  2  1  0  0  0  0
  2  3  1  0  0  0  0
  2  4  1  0  0  0  0
  4  5  1  0  0  0  0
  4  6  1  0  0  0  0
  4  7  1  0  0  0  0
  2  8  1  0  0  0  0
  8  9  1  0  0  0  0
  8 10  1  0  0  0  0
  8 11  1  0  0  0  0
  1 12  1  0  0  0  0
 12 13  1  0  0  0  0
 13 14  1  0  0  0  0
 13 15  1  0  0  0  0
 13 16  1  0  0  0  0
 12 17  2  0  0  0  0
M  END
> <ChemID>
100461

> <source_casrn>
108-21-4

> <CAS>
108-21-4

> <SMILES>
CC(C)OC(C)=O

> <NAME>
ISOPROPYL ACETATE

> <preferred_name>
Isopropyl acetate

> <iupac>
propan-2-yl acetate

> <MPID>
100471

> <dsstox_substance_id>
DTXSID2025478

> <Canonical_QSARr>
CC(C)OC(C)=O

> <InChI_Code_QSARr>
InChI=1S/C5H10O2/c1-4(2)7-5(3)6/h4H,1-3H3

> <InChI Key_QSARr>
JMMWKPVZQRWMSS-UHFFFAOYSA-N

> <Salt_Solvent>
?

> <Ready_Biodeg>
1.0

$$$$
100465
  -INDIGO-08031722522D

 14 14  0  0  0  0  0  0  0  0999 V2000
    3.2000    2.7713    0.0000 Cl  0  0  0  0  0  0  0  0  0  0  0  0
    2.4000    1.3856    0.0000 C   0  0  0  0  0  0  0  0  0  0  0  0
    3.2000   -0.0000    0.0000 C   0  0  0  0  0  0  0  0  0  0  0  0
    4.8000   -0.0000    0.0000 H   0  0  0  0  0  0  0  0  0  0  0  0
    2.4000   -1.3856    0.0000 C   0  0  0  0  0  0  0  0  0  0  0  0
    3.2000   -2.7713    0.0000 H   0  0  0  0  0  0  0  0  0  0  0  0
    0.8000   -1.3856    0.0000 C   0  0  0  0  0  0  0  0  0  0  0  0
    0.0000   -2.7713    0.0000 H   0  0  0  0  0  0  0  0  0  0  0  0
    0.0000    0.0000    0.0000 C   0  0  0  0  0  0  0  0  0  0  0  0
   -1.6000    0.0000    0.0000 N   0  0  0  0  0  0  0  0  0  0  0  0
   -2.4000   -1.3856    0.0000 H   0  0  0  0  0  0  0  0  0  0  0  0
   -2.4000    1.3856    0.0000 H   0  0  0  0  0  0  0  0  0  0  0  0
    0.8000    1.3856    0.0000 C   0  0  0  0  0  0  0  0  0  0  0  0
    0.0000    2.7713    0.0000 H   0  0  0  0  0  0  0  0  0  0  0  0
  1  2  1  0  0  0  0
  2  3  1  0  0  0  0
  3  4  1  0  0  0  0
  3  5  2  0  0  0  0
  5  6  1  0  0  0  0
  5  7  1  0  0  0  0
  7  8  1  0  0  0  0
  7  9  2  0  0  0  0
  9 10  1  0  0  0  0
 10 11  1  0  0  0  0
 10 12  1  0  0  0  0
  9 13  1  0  0  0  0
 13  2  2  0  0  0  0
 13 14  1  0  0  0  0
M  END
> <ChemID>
100465

> <source_casrn>
108-42-9

> <CAS>
108-42-9

> <SMILES>
Nc1cc(Cl)ccc1

> <NAME>
Benzenamine, 3-chloro-

> <preferred_name>
3-Chloroaniline

> <iupac>
3-chloroaniline

> <MPID>
100475

> <dsstox_substance_id>
DTXSID0024761

> <Canonical_QSARr>
Nc1cc(Cl)ccc1

> <InChI_Code_QSARr>
InChI=1S/C6H6ClN/c7-5-2-1-3-6(8)4-5/h1-4H,8H2

> <InChI Key_QSARr>
PNPCRKVUWYDDST-UHFFFAOYSA-N

> <Salt_Solvent>
?

> <Ready_Biodeg>
0.0

$$$$
100469
  -INDIGO-08031722522D

 14 14  0  0  0  0  0  0  0  0999 V2000
    1.6000   -0.0000    0.0000 O   0  0  0  0  0  0  0  0  0  0  0  0
    2.4000   -1.3856    0.0000 H   0  0  0  0  0  0  0  0  0  0  0  0
    0.0000   -0.0000    0.0000 C   0  0  0  0  0  0  0  0  0  0  0  0
   -0.8000    1.3856    0.0000 C   0  0  0  0  0  0  0  0  0  0  0  0
    0.0000    2.7713    0.0000 H   0  0  0  0  0  0  0  0  0  0  0  0
   -2.4000    1.3856    0.0000 C   0  0  0  0  0  0  0  0  0  0  0  0
   -3.2000    2.7713    0.0000 O   0  0  0  0  0  0  0  0  0  0  0  0
   -4.8000    2.7713    0.0000 H   0  0  0  0  0  0  0  0  0  0  0  0
   -3.2000   -0.0000    0.0000 C   0  0  0  0  0  0  0  0  0  0  0  0
   -4.8000   -0.0000    0.0000 H   0  0  0  0  0  0  0  0  0  0  0  0
   -2.4000   -1.3856    0.0000 C   0  0  0  0  0  0  0  0  0  0  0  0
   -3.2000   -2.7713    0.0000 H   0  0  0  0  0  0  0  0  0  0  0  0
   -0.8000   -1.3856    0.0000 C   0  0  0  0  0  0  0  0  0  0  0  0
    0.0000   -2.7713    0.0000 H   0  0  0  0  0  0  0  0  0  0  0  0
  1  2  1  0  0  0  0
  1  3  1  0  0  0  0
  3  4  1  0  0  0  0
  4  5  1  0  0  0  0
  4  6  2  0  0  0  0
  6  7  1  0  0  0  0
  7  8  1  0  0  0  0
  6  9  1  0  0  0  0
  9 10  1  0  0  0  0
  9 11  2  0  0  0  0
 11 12  1  0  0  0  0
 11 13  1  0  0  0  0
 13  3  2  0  0  0  0
 13 14  1  0  0  0  0
M  END
> <ChemID>
100469

> <source_casrn>
108-46-3

> <CAS>
108-46-3

> <SMILES>
Oc1cc(O)ccc1

> <NAME>
1,3-Dihydroxybenzene

> <preferred_name>
Resorcinol

> <iupac>
benzene-1,3-diol

> <MPID>
100479

> <dsstox_substance_id>
DTXSID2021238

> <Canonical_QSARr>
Oc1cc(O)ccc1

> <InChI_Code_QSARr>
InChI=1S/C6H6O2/c7-5-2-1-3-6(8)4-5/h1-4,7-8H

> <InChI Key_QSARr>
GHMLBKRAJCXXBS-UHFFFAOYSA-N

> <Salt_Solvent>
?

> <Ready_Biodeg>
1.0

$$$$
100473
  -INDIGO-08031722522D

 21 21  0  0  0  0  0  0  0  0999 V2000
    0.0000    0.0001    0.0000 C   0  0  0  0  0  0  0  0  0  0  0  0
    1.3857    0.8000    0.0000 C   0  0  0  0  0  0  0  0  0  0  0  0
    1.3857    2.4000    0.0000 H   0  0  0  0  0  0  0  0  0  0  0  0
    2.7713    0.0001    0.0000 C   0  0  0  0  0  0  0  0  0  0  0  0
    4.1570    0.8000    0.0000 C   0  0  0  0  0  0  0  0  0  0  0  0
    5.5426    1.6001    0.0000 H   0  0  0  0  0  0  0  0  0  0  0  0
    5.5426    0.0001    0.0000 H   0  0  0  0  0  0  0  0  0  0  0  0
    4.1570    2.4000    0.0000 H   0  0  0  0  0  0  0  0  0  0  0  0
    2.7713   -1.5999    0.0000 C   0  0  0  0  0  0  0  0  0  0  0  0
    4.1570   -2.4000    0.0000 H   0  0  0  0  0  0  0  0  0  0  0  0
    1.3857   -2.4000    0.0000 C   0  0  0  0  0  0  0  0  0  0  0  0
    1.3857   -4.0000    0.0000 C   0  0  0  0  0  0  0  0  0  0  0  0
    1.3856   -5.6000    0.0000 H   0  0  0  0  0  0  0  0  0  0  0  0
    0.0000   -4.8001    0.0000 H   0  0  0  0  0  0  0  0  0  0  0  0
    2.7713   -4.8001    0.0000 H   0  0  0  0  0  0  0  0  0  0  0  0
    0.0000   -1.5999    0.0000 C   0  0  0  0  0  0  0  0  0  0  0  0
   -1.3857   -2.4000    0.0000 H   0  0  0  0  0  0  0  0  0  0  0  0
   -1.3857    0.8000    0.0000 C   0  0  0  0  0  0  0  0  0  0  0  0
   -2.7713    1.6001    0.0000 H   0  0  0  0  0  0  0  0  0  0  0  0
   -2.7713    0.0001    0.0000 H   0  0  0  0  0  0  0  0  0  0  0  0
   -1.3857    2.4000    0.0000 H   0  0  0  0  0  0  0  0  0  0  0  0
  1  2  1  0  0  0  0
  2  3  1  0  0  0  0
  2  4  2  0  0  0  0
  4  5  1  0  0  0  0
  5  6  1  0  0  0  0
  5  7  1  0  0  0  0
  5  8  1  0  0  0  0
  4  9  1  0  0  0  0
  9 10  1  0  0  0  0
  9 11  2  0  0  0  0
 11 12  1  0  0  0  0
 12 13  1  0  0  0  0
 12 14  1  0  0  0  0
 12 15  1  0  0  0  0
 11 16  1  0  0  0  0
 16  1  2  0  0  0  0
 16 17  1  0  0  0  0
  1 18  1  0  0  0  0
 18 19  1  0  0  0  0
 18 20  1  0  0  0  0
 18 21  1  0  0  0  0
M  END
> <ChemID>
100473

> <source_casrn>
108-67-8

> <CAS>
108-67-8

> <SMILES>
Cc1cc(C)cc(C)c1

> <NAME>
Benzene, 1,3,5-trimethyl-

> <preferred_name>
1,3,5-Trimethylbenzene

> <iupac>
1,3,5-trimethylbenzene

> <MPID>
100483

> <dsstox_substance_id>
DTXSID6026797

> <Canonical_QSARr>
Cc1cc(C)cc(C)c1

> <InChI_Code_QSARr>
InChI=1S/C9H12/c1-7-4-8(2)6-9(3)5-7/h4-6H,1-3H3

> <InChI Key_QSARr>
AUHZEENZYGFFBQ-UHFFFAOYSA-N

> <Salt_Solvent>
?

> <Ready_Biodeg>
0.0

$$$$
100477
  -INDIGO-08031722522D

 15 15  0  0  0  0  0  0  0  0999 V2000
    1.3857    0.8000    0.0000 N   0  0  0  0  0  0  0  0  0  0  0  0
    2.7713    0.0000    0.0000 H   0  0  0  0  0  0  0  0  0  0  0  0
    1.3857    2.4000    0.0000 H   0  0  0  0  0  0  0  0  0  0  0  0
    0.0000    0.0000    0.0000 C   0  0  0  0  0  0  0  0  0  0  0  0
   -1.3857    0.8000    0.0000 N   0  0  0  0  0  0  0  0  0  0  0  0
   -2.7713    0.0000    0.0000 C   0  0  0  0  0  0  0  0  0  0  0  0
   -4.1570    0.8000    0.0000 N   0  0  0  0  0  0  0  0  0  0  0  0
   -5.5426    0.0000    0.0000 H   0  0  0  0  0  0  0  0  0  0  0  0
   -4.1569    2.4000    0.0000 H   0  0  0  0  0  0  0  0  0  0  0  0
   -2.7713   -1.6000    0.0000 N   0  0  0  0  0  0  0  0  0  0  0  0
   -1.3856   -2.4000    0.0000 C   0  0  0  0  0  0  0  0  0  0  0  0
   -1.3856   -4.0000    0.0000 N   0  0  0  0  0  0  0  0  0  0  0  0
    0.0000   -4.8000    0.0000 H   0  0  0  0  0  0  0  0  0  0  0  0
   -2.7713   -4.8000    0.0000 H   0  0  0  0  0  0  0  0  0  0  0  0
    0.0000   -1.6000    0.0000 N   0  0  0  0  0  0  0  0  0  0  0  0
  1  2  1  0  0  0  0
  1  3  1  0  0  0  0
  1  4  1  0  0  0  0
  4  5  1  0  0  0  0
  5  6  2  0  0  0  0
  6  7  1  0  0  0  0
  7  8  1  0  0  0  0
  7  9  1  0  0  0  0
  6 10  1  0  0  0  0
 10 11  2  0  0  0  0
 11 12  1  0  0  0  0
 12 13  1  0  0  0  0
 12 14  1  0  0  0  0
 11 15  1  0  0  0  0
 15  4  2  0  0  0  0
M  END
> <ChemID>
100477

> <source_casrn>
108-78-1

> <CAS>
108-78-1

> <SMILES>
Nc1[n]c(N)[n]c(N)[n]1

> <NAME>
1,3,5-Triazine-2,4,6-triamine

> <preferred_name>
Melamine

> <iupac>
1,3,5-triazine-2,4,6-triamine

> <MPID>
100487

> <dsstox_substance_id>
DTXSID6020802

> <Canonical_QSARr>
Nc1[n]c(N)[n]c(N)[n]1

> <InChI_Code_QSARr>
InChI=1S/C3H6N6/c4-1-7-2(5)9-3(6)8-1/h(H6,4,5,6,7,8,9)

> <InChI Key_QSARr>
JDSHMPZPIAZGSV-UHFFFAOYSA-N

> <Salt_Solvent>
?

> <Ready_Biodeg>
0.0

$$$$
100481
  -INDIGO-08031722522D

 15 15  0  0  0  0  0  0  0  0999 V2000
    1.6000   -0.0000    0.0000 C   0  0  0  0  0  0  0  0  0  0  0  0
    3.2000   -0.0000    0.0000 H   0  0  0  0  0  0  0  0  0  0  0  0
    2.4001   -1.3856    0.0000 H   0  0  0  0  0  0  0  0  0  0  0  0
    2.4001    1.3856    0.0000 H   0  0  0  0  0  0  0  0  0  0  0  0
    0.0000   -0.0000    0.0000 C   0  0  0  0  0  0  0  0  0  0  0  0
   -0.7999    1.3856    0.0000 C   0  0  0  0  0  0  0  0  0  0  0  0
    0.0000    2.7713    0.0000 H   0  0  0  0  0  0  0  0  0  0  0  0
   -2.4001    1.3856    0.0000 C   0  0  0  0  0  0  0  0  0  0  0  0
   -3.2000    2.7713    0.0000 H   0  0  0  0  0  0  0  0  0  0  0  0
   -3.2000   -0.0000    0.0000 C   0  0  0  0  0  0  0  0  0  0  0  0
   -4.8000   -0.0000    0.0000 H   0  0  0  0  0  0  0  0  0  0  0  0
   -2.4001   -1.3856    0.0000 C   0  0  0  0  0  0  0  0  0  0  0  0
   -3.2000   -2.7713    0.0000 H   0  0  0  0  0  0  0  0  0  0  0  0
   -0.8001   -1.3856    0.0000 C   0  0  0  0  0  0  0  0  0  0  0  0
    0.0000   -2.7713    0.0000 H   0  0  0  0  0  0  0  0  0  0  0  0
  1  2  1  0  0  0  0
  1  3  1  0  0  0  0
  1  4  1  0  0  0  0
  1  5  1  0  0  0  0
  5  6  1  0  0  0  0
  6  7  1  0  0  0  0
  6  8  2  0  0  0  0
  8  9  1  0  0  0  0
  8 10  1  0  0  0  0
 10 11  1  0  0  0  0
 10 12  2  0  0  0  0
 12 13  1  0  0  0  0
 12 14  1  0  0  0  0
 14  5  2  0  0  0  0
 14 15  1  0  0  0  0
M  END
> <ChemID>
100481

> <source_casrn>
108-88-3

> <CAS>
108-88-3

> <SMILES>
Cc1ccccc1

> <NAME>
Toluene

> <preferred_name>
Toluene

> <iupac>
methylbenzene

> <MPID>
100491

> <dsstox_substance_id>
DTXSID7021360

> <Canonical_QSARr>
Cc1ccccc1

> <InChI_Code_QSARr>
InChI=1S/C7H8/c1-7-5-3-2-4-6-7/h2-6H,1H3

> <InChI Key_QSARr>
YXFVVABEGXRONW-UHFFFAOYSA-N

> <Salt_Solvent>
?

> <Ready_Biodeg>
1.0

$$$$
100485
  -INDIGO-08031722522D

 17 17  0  0  0  0  0  0  0  0999 V2000
   -4.1569    2.4000    0.0000 O   0  0  0  0  0  0  0  0  0  0  0  0
   -2.7713    1.6000    0.0000 C   0  0  0  0  0  0  0  0  0  0  0  0
   -1.3856    2.4000    0.0000 C   0  0  0  0  0  0  0  0  0  0  0  0
   -2.4141    3.6257    0.0000 H   0  0  0  0  0  0  0  0  0  0  0  0
   -0.3571    3.6257    0.0000 H   0  0  0  0  0  0  0  0  0  0  0  0
    0.0000    1.6000    0.0000 C   0  0  0  0  0  0  0  0  0  0  0  0
    0.5472    3.1035    0.0000 H   0  0  0  0  0  0  0  0  0  0  0  0
    1.5757    1.3222    0.0000 H   0  0  0  0  0  0  0  0  0  0  0  0
    0.0000   -0.0000    0.0000 C   0  0  0  0  0  0  0  0  0  0  0  0
    1.5757    0.2778    0.0000 H   0  0  0  0  0  0  0  0  0  0  0  0
    0.5472   -1.5035    0.0000 H   0  0  0  0  0  0  0  0  0  0  0  0
   -1.3856   -0.8000    0.0000 C   0  0  0  0  0  0  0  0  0  0  0  0
   -0.3571   -2.0257    0.0000 H   0  0  0  0  0  0  0  0  0  0  0  0
   -2.4141   -2.0257    0.0000 H   0  0  0  0  0  0  0  0  0  0  0  0
   -2.7713   -0.0000    0.0000 C   0  0  0  0  0  0  0  0  0  0  0  0
   -3.3185   -1.5035    0.0000 H   0  0  0  0  0  0  0  0  0  0  0  0
   -4.3470    0.2778    0.0000 H   0  0  0  0  0  0  0  0  0  0  0  0
  1  2  2  0  0  0  0
  2  3  1  0  0  0  0
  3  4  1  0  0  0  0
  3  5  1  0  0  0  0
  3  6  1  0  0  0  0
  6  7  1  0  0  0  0
  6  8  1  0  0  0  0
  6  9  1  0  0  0  0
  9 10  1  0  0  0  0
  9 11  1  0  0  0  0
  9 12  1  0  0  0  0
 12 13  1  0  0  0  0
 12 14  1  0  0  0  0
 12 15  1  0  0  0  0
 15  2  1  0  0  0  0
 15 16  1  0  0  0  0
 15 17  1  0  0  0  0
M  END
> <ChemID>
100485

> <source_casrn>
108-94-1

> <CAS>
108-94-1

> <SMILES>
O=C1CCCCC1

> <NAME>
Cyclohexanone

> <preferred_name>
Cyclohexanone

> <iupac>
cyclohexanone

> <MPID>
100495

> <dsstox_substance_id>
DTXSID6020359

> <Canonical_QSARr>
O=C1CCCCC1

> <InChI_Code_QSARr>
InChI=1S/C6H10O/c7-6-4-2-1-3-5-6/h1-5H2

> <InChI Key_QSARr>
JHIVVAPYMSGYDF-UHFFFAOYSA-N

> <Salt_Solvent>
?

> <Ready_Biodeg>
1.0

$$$$
100489
  -INDIGO-08031722522D

 12 12  0  0  0  0  0  0  0  0999 V2000
    1.3856    2.4000    0.0000 N   0  0  0  0  0  0  0  0  0  0  0  0
    2.7713    1.6000    0.0000 C   0  0  0  0  0  0  0  0  0  0  0  0
    4.1569    2.4000    0.0000 H   0  0  0  0  0  0  0  0  0  0  0  0
    2.7713   -0.0000    0.0000 C   0  0  0  0  0  0  0  0  0  0  0  0
    4.1569   -0.8000    0.0000 H   0  0  0  0  0  0  0  0  0  0  0  0
    1.3856   -0.8000    0.0000 C   0  0  0  0  0  0  0  0  0  0  0  0
    1.3856   -2.4000    0.0000 H   0  0  0  0  0  0  0  0  0  0  0  0
    0.0000    0.0000    0.0000 C   0  0  0  0  0  0  0  0  0  0  0  0
   -1.3856   -0.8000    0.0000 O   0  0  0  0  0  0  0  0  0  0  0  0
   -2.7713    0.0000    0.0000 H   0  0  0  0  0  0  0  0  0  0  0  0
    0.0000    1.6000    0.0000 C   0  0  0  0  0  0  0  0  0  0  0  0
   -1.3856    2.4000    0.0000 H   0  0  0  0  0  0  0  0  0  0  0  0
  1  2  1  0  0  0  0
  2  3  1  0  0  0  0
  2  4  2  0  0  0  0
  4  5  1  0  0  0  0
  4  6  1  0  0  0  0
  6  7  1  0  0  0  0
  6  8  2  0  0  0  0
  8  9  1  0  0  0  0
  9 10  1  0  0  0  0
  8 11  1  0  0  0  0
 11  1  2  0  0  0  0
 11 12  1  0  0  0  0
M  END
> <ChemID>
100489

> <source_casrn>
109-00-2

> <CAS>
109-00-2

> <SMILES>
Oc1c[n]ccc1

> <NAME>
3-Pyridinol

> <preferred_name>
3-Pyridinol

> <iupac>
pyridin-3-ol

> <MPID>
100499

> <dsstox_substance_id>
DTXSID1051563

> <Canonical_QSARr>
Oc1c[n]ccc1

> <InChI_Code_QSARr>
InChI=1S/C5H5NO/c7-5-2-1-3-6-4-5/h1-4,7H

> <InChI Key_QSARr>
GRFNBEZIAWKNCO-UHFFFAOYSA-N

> <Salt_Solvent>
?

> <Ready_Biodeg>
1.0

$$$$
100493
  -INDIGO-08031722522D

 17 16  0  0  0  0  0  0  0  0999 V2000
    5.5426    0.0000    0.0000 C   0  0  0  0  0  0  0  0  0  0  0  0
    6.9282   -0.8000    0.0000 H   0  0  0  0  0  0  0  0  0  0  0  0
    6.9282    0.8000    0.0000 H   0  0  0  0  0  0  0  0  0  0  0  0
    5.5426   -1.6000    0.0000 H   0  0  0  0  0  0  0  0  0  0  0  0
    4.1570    0.8000    0.0000 C   0  0  0  0  0  0  0  0  0  0  0  0
    4.1570    2.4000    0.0000 O   0  0  0  0  0  0  0  0  0  0  0  0
    2.7713    0.0000    0.0000 O   0  0  0  0  0  0  0  0  0  0  0  0
    1.3856    0.8000    0.0000 C   0  0  0  0  0  0  0  0  0  0  0  0
    0.7733    2.2782    0.0000 H   0  0  0  0  0  0  0  0  0  0  0  0
    1.9979    2.2782    0.0000 H   0  0  0  0  0  0  0  0  0  0  0  0
   -0.0000    0.0000    0.0000 C   0  0  0  0  0  0  0  0  0  0  0  0
    0.6123   -1.4782    0.0000 H   0  0  0  0  0  0  0  0  0  0  0  0
   -0.6123   -1.4782    0.0000 H   0  0  0  0  0  0  0  0  0  0  0  0
   -1.3857    0.8000    0.0000 C   0  0  0  0  0  0  0  0  0  0  0  0
   -2.7713    1.6000    0.0000 H   0  0  0  0  0  0  0  0  0  0  0  0
   -2.7713    0.0000    0.0000 H   0  0  0  0  0  0  0  0  0  0  0  0
   -1.3857    2.4000    0.0000 H   0  0  0  0  0  0  0  0  0  0  0  0
  1  2  1  0  0  0  0
  1  3  1  0  0  0  0
  1  4  1  0  0  0  0
  1  5  1  0  0  0  0
  5  6  2  0  0  0  0
  5  7  1  0  0  0  0
  7  8  1  0  0  0  0
  8  9  1  0  0  0  0
  8 10  1  0  0  0  0
  8 11  1  0  0  0  0
 11 12  1  0  0  0  0
 11 13  1  0  0  0  0
 11 14  1  0  0  0  0
 14 15  1  0  0  0  0
 14 16  1  0  0  0  0
 14 17  1  0  0  0  0
M  END
> <ChemID>
100493

> <source_casrn>
109-60-4

> <CAS>
109-60-4

> <SMILES>
CCCOC(C)=O

> <NAME>
N-PROPYL ACETATE

> <preferred_name>
Propyl acetate

> <iupac>
propyl acetate

> <MPID>
100503

> <dsstox_substance_id>
DTXSID6021901

> <Canonical_QSARr>
CCCOC(C)=O

> <InChI_Code_QSARr>
InChI=1S/C5H10O2/c1-3-4-7-5(2)6/h3-4H2,1-2H3

> <InChI Key_QSARr>
YKYONYBAUNKHLG-UHFFFAOYSA-N

> <Salt_Solvent>
?

> <Ready_Biodeg>
1.0

$$$$
100497
  -INDIGO-08031722522D

 13 12  0  0  0  0  0  0  0  0999 V2000
    2.7713   -0.0000    0.0000 C   0  0  0  0  0  0  0  0  0  0  0  0
    4.1569   -0.8000    0.0000 H   0  0  0  0  0  0  0  0  0  0  0  0
    4.1569    0.8000    0.0000 H   0  0  0  0  0  0  0  0  0  0  0  0
    2.7713   -1.6000    0.0000 H   0  0  0  0  0  0  0  0  0  0  0  0
    1.3856    0.8000    0.0000 O   0  0  0  0  0  0  0  0  0  0  0  0
    0.0001   -0.0000    0.0000 C   0  0  0  0  0  0  0  0  0  0  0  0
   -0.6123   -1.4782    0.0000 H   0  0  0  0  0  0  0  0  0  0  0  0
    0.6123   -1.4782    0.0000 H   0  0  0  0  0  0  0  0  0  0  0  0
   -1.3856    0.8000    0.0000 C   0  0  0  0  0  0  0  0  0  0  0  0
   -0.7734    2.2782    0.0000 H   0  0  0  0  0  0  0  0  0  0  0  0
   -1.9979    2.2782    0.0000 H   0  0  0  0  0  0  0  0  0  0  0  0
   -2.7713   -0.0000    0.0000 O   0  0  0  0  0  0  0  0  0  0  0  0
   -4.1569    0.8000    0.0000 H   0  0  0  0  0  0  0  0  0  0  0  0
  1  2  1  0  0  0  0
  1  3  1  0  0  0  0
  1  4  1  0  0  0  0
  1  5  1  0  0  0  0
  5  6  1  0  0  0  0
  6  7  1  0  0  0  0
  6  8  1  0  0  0  0
  6  9  1  0  0  0  0
  9 10  1  0  0  0  0
  9 11  1  0  0  0  0
  9 12  1  0  0  0  0
 12 13  1  0  0  0  0
M  END
> <ChemID>
100497

> <source_casrn>
109-86-4

> <CAS>
109-86-4

> <SMILES>
COCCO

> <NAME>
Ethylene glycol monomethyl ether

> <preferred_name>
2-Methoxyethanol

> <iupac>
2-methoxyethanol

> <MPID>
100507

> <dsstox_substance_id>
DTXSID5024182

> <Canonical_QSARr>
COCCO

> <InChI_Code_QSARr>
InChI=1S/C3H8O2/c1-5-3-2-4/h4H,2-3H2,1H3

> <InChI Key_QSARr>
XNWFRZJHXBZDAG-UHFFFAOYSA-N

> <Salt_Solvent>
?

> <Ready_Biodeg>
1.0

$$$$
100501
  -INDIGO-08031722522D

  9  9  0  0  0  0  0  0  0  0999 V2000
    0.0000   -0.0000    0.0000 C   0  0  0  0  0  0  0  0  0  0  0  0
    0.9405    1.2944    0.0000 H   0  0  0  0  0  0  0  0  0  0  0  0
    0.4944   -1.5217    0.0000 C   0  0  0  0  0  0  0  0  0  0  0  0
    2.0161   -2.0161    0.0000 H   0  0  0  0  0  0  0  0  0  0  0  0
   -0.8000   -2.4621    0.0000 O   0  0  0  0  0  0  0  0  0  0  0  0
   -2.0944   -1.5217    0.0000 C   0  0  0  0  0  0  0  0  0  0  0  0
   -3.6161   -2.0161    0.0000 H   0  0  0  0  0  0  0  0  0  0  0  0
   -1.6000   -0.0000    0.0000 C   0  0  0  0  0  0  0  0  0  0  0  0
   -2.5405    1.2944    0.0000 H   0  0  0  0  0  0  0  0  0  0  0  0
  1  2  1  0  0  0  0
  1  3  2  0  0  0  0
  3  4  1  0  0  0  0
  3  5  1  0  0  0  0
  5  6  1  0  0  0  0
  6  7  1  0  0  0  0
  6  8  2  0  0  0  0
  8  1  1  0  0  0  0
  8  9  1  0  0  0  0
M  END
> <ChemID>
100501

> <source_casrn>
110-00-9

> <CAS>
110-00-9

> <SMILES>
c1ccco1

> <NAME>
Furan

> <preferred_name>
Furan

> <iupac>
furan

> <MPID>
100511

> <dsstox_substance_id>
DTXSID6020646

> <Canonical_QSARr>
c1ccco1

> <InChI_Code_QSARr>
InChI=1S/C4H4O/c1-2-4-5-3-1/h1-4H

> <InChI Key_QSARr>
YLQBMQCUIZJEEH-UHFFFAOYSA-N

> <Salt_Solvent>
?

> <Ready_Biodeg>
0.0

$$$$
100506
  -INDIGO-08031722522D

 20 19  0  0  0  0  0  0  0  0999 V2000
    4.1570   -0.8000    0.0000 C   0  0  0  0  0  0  0  0  0  0  0  0
    4.1570   -2.4000    0.0000 O   0  0  0  0  0  0  0  0  0  0  0  0
    2.7713    0.0000    0.0000 O   0  0  0  0  0  0  0  0  0  0  0  0
    1.3856   -0.8000    0.0000 C   0  0  0  0  0  0  0  0  0  0  0  0
    0.7733   -2.2782    0.0000 H   0  0  0  0  0  0  0  0  0  0  0  0
    1.9979   -2.2782    0.0000 H   0  0  0  0  0  0  0  0  0  0  0  0
   -0.0000    0.0000    0.0000 C   0  0  0  0  0  0  0  0  0  0  0  0
   -0.8000   -1.3856    0.0000 H   0  0  0  0  0  0  0  0  0  0  0  0
   -1.3857    0.8000    0.0000 C   0  0  0  0  0  0  0  0  0  0  0  0
   -2.7713    1.6000    0.0000 H   0  0  0  0  0  0  0  0  0  0  0  0
   -2.7713    0.0000    0.0000 H   0  0  0  0  0  0  0  0  0  0  0  0
   -1.3857    2.4000    0.0000 H   0  0  0  0  0  0  0  0  0  0  0  0
    0.8001    1.3856    0.0000 C   0  0  0  0  0  0  0  0  0  0  0  0
    1.6000    2.7713    0.0000 H   0  0  0  0  0  0  0  0  0  0  0  0
    2.4000    1.3856    0.0000 H   0  0  0  0  0  0  0  0  0  0  0  0
   -0.0000    2.7713    0.0000 H   0  0  0  0  0  0  0  0  0  0  0  0
    5.5426    0.0000    0.0000 C   0  0  0  0  0  0  0  0  0  0  0  0
    6.9282    0.8000    0.0000 H   0  0  0  0  0  0  0  0  0  0  0  0
    6.9282   -0.8000    0.0000 H   0  0  0  0  0  0  0  0  0  0  0  0
    5.5426    1.6000    0.0000 H   0  0  0  0  0  0  0  0  0  0  0  0
  1  2  2  0  0  0  0
  1  3  1  0  0  0  0
  3  4  1  0  0  0  0
  4  5  1  0  0  0  0
  4  6  1  0  0  0  0
  4  7  1  0  0  0  0
  7  8  1  0  0  0  0
  7  9  1  0  0  0  0
  9 10  1  0  0  0  0
  9 11  1  0  0  0  0
  9 12  1  0  0  0  0
  7 13  1  0  0  0  0
 13 14  1  0  0  0  0
 13 15  1  0  0  0  0
 13 16  1  0  0  0  0
  1 17  1  0  0  0  0
 17 18  1  0  0  0  0
 17 19  1  0  0  0  0
 17 20  1  0  0  0  0
M  END
> <ChemID>
100506

> <source_casrn>
110-19-0

> <CAS>
110-19-0

> <SMILES>
CC(C)COC(C)=O

> <NAME>
ISOBUTYL ACETATE

> <preferred_name>
Isobutyl acetate

> <iupac>
2-methylpropyl acetate

> <MPID>
100516

> <dsstox_substance_id>
DTXSID5026837

> <Canonical_QSARr>
CC(C)COC(C)=O

> <InChI_Code_QSARr>
InChI=1S/C6H12O2/c1-5(2)4-8-6(3)7/h5H,4H2,1-3H3

> <InChI Key_QSARr>
GJRQTCIYDGXPES-UHFFFAOYSA-N

> <Salt_Solvent>
?

> <Ready_Biodeg>
1.0

$$$$
100510
  -INDIGO-08031722522D

 20 19  0  0  0  0  0  0  0  0999 V2000
    2.7713    0.0000    0.0000 C   0  0  0  0  0  0  0  0  0  0  0  0
    4.1569    0.8000    0.0000 H   0  0  0  0  0  0  0  0  0  0  0  0
    4.1569   -0.8000    0.0000 H   0  0  0  0  0  0  0  0  0  0  0  0
    2.7713    1.6000    0.0000 H   0  0  0  0  0  0  0  0  0  0  0  0
    1.3857   -0.8000    0.0000 C   0  0  0  0  0  0  0  0  0  0  0  0
    0.7734   -2.2782    0.0000 H   0  0  0  0  0  0  0  0  0  0  0  0
    1.9980   -2.2782    0.0000 H   0  0  0  0  0  0  0  0  0  0  0  0
    0.0001    0.0000    0.0000 C   0  0  0  0  0  0  0  0  0  0  0  0
    0.6124    1.4782    0.0000 H   0  0  0  0  0  0  0  0  0  0  0  0
   -0.6122    1.4782    0.0000 H   0  0  0  0  0  0  0  0  0  0  0  0
   -1.3857   -0.8000    0.0000 C   0  0  0  0  0  0  0  0  0  0  0  0
   -1.9980   -2.2782    0.0000 H   0  0  0  0  0  0  0  0  0  0  0  0
   -0.7734   -2.2782    0.0000 H   0  0  0  0  0  0  0  0  0  0  0  0
   -2.7713    0.0000    0.0000 C   0  0  0  0  0  0  0  0  0  0  0  0
   -2.1590    1.4782    0.0000 H   0  0  0  0  0  0  0  0  0  0  0  0
   -3.3836    1.4782    0.0000 H   0  0  0  0  0  0  0  0  0  0  0  0
   -4.1569   -0.8000    0.0000 C   0  0  0  0  0  0  0  0  0  0  0  0
   -5.5426   -1.6000    0.0000 H   0  0  0  0  0  0  0  0  0  0  0  0
   -5.5426    0.0000    0.0000 H   0  0  0  0  0  0  0  0  0  0  0  0
   -4.1569   -2.4000    0.0000 H   0  0  0  0  0  0  0  0  0  0  0  0
  1  2  1  0  0  0  0
  1  3  1  0  0  0  0
  1  4  1  0  0  0  0
  1  5  1  0  0  0  0
  5  6  1  0  0  0  0
  5  7  1  0  0  0  0
  5  8  1  0  0  0  0
  8  9  1  0  0  0  0
  8 10  1  0  0  0  0
  8 11  1  0  0  0  0
 11 12  1  0  0  0  0
 11 13  1  0  0  0  0
 11 14  1  0  0  0  0
 14 15  1  0  0  0  0
 14 16  1  0  0  0  0
 14 17  1  0  0  0  0
 17 18  1  0  0  0  0
 17 19  1  0  0  0  0
 17 20  1  0  0  0  0
M  END
> <ChemID>
100510

> <source_casrn>
110-54-3

> <CAS>
110-54-3

> <SMILES>
CCCCCC

> <NAME>
Hexane

> <preferred_name>
Hexane

> <iupac>
hexane

> <MPID>
100520

> <dsstox_substance_id>
DTXSID0021917

> <Canonical_QSARr>
CCCCCC

> <InChI_Code_QSARr>
InChI=1S/C6H14/c1-3-5-6-4-2/h3-6H2,1-2H3

> <InChI Key_QSARr>
VLKZOEOYAKHREP-UHFFFAOYSA-N

> <Salt_Solvent>
?

> <Ready_Biodeg>
1.0

$$$$
100514
  -INDIGO-08031722522D

 16 15  0  0  0  0  0  0  0  0999 V2000
    2.7713    0.0000    0.0000 O   0  0  0  0  0  0  0  0  0  0  0  0
    4.1569    0.8000    0.0000 H   0  0  0  0  0  0  0  0  0  0  0  0
    1.3857    0.8000    0.0000 C   0  0  0  0  0  0  0  0  0  0  0  0
    0.7734    2.2782    0.0000 H   0  0  0  0  0  0  0  0  0  0  0  0
    1.9980    2.2782    0.0000 H   0  0  0  0  0  0  0  0  0  0  0  0
    0.0001    0.0000    0.0000 C   0  0  0  0  0  0  0  0  0  0  0  0
    0.6124   -1.4782    0.0000 H   0  0  0  0  0  0  0  0  0  0  0  0
   -0.6122   -1.4782    0.0000 H   0  0  0  0  0  0  0  0  0  0  0  0
   -1.3857    0.8000    0.0000 O   0  0  0  0  0  0  0  0  0  0  0  0
   -2.7713    0.0000    0.0000 C   0  0  0  0  0  0  0  0  0  0  0  0
   -2.1590   -1.4782    0.0000 H   0  0  0  0  0  0  0  0  0  0  0  0
   -3.3836   -1.4782    0.0000 H   0  0  0  0  0  0  0  0  0  0  0  0
   -4.1569    0.8000    0.0000 C   0  0  0  0  0  0  0  0  0  0  0  0
   -5.5426    1.6000    0.0000 H   0  0  0  0  0  0  0  0  0  0  0  0
   -5.5426    0.0000    0.0000 H   0  0  0  0  0  0  0  0  0  0  0  0
   -4.1569    2.4000    0.0000 H   0  0  0  0  0  0  0  0  0  0  0  0
  1  2  1  0  0  0  0
  1  3  1  0  0  0  0
  3  4  1  0  0  0  0
  3  5  1  0  0  0  0
  3  6  1  0  0  0  0
  6  7  1  0  0  0  0
  6  8  1  0  0  0  0
  6  9  1  0  0  0  0
  9 10  1  0  0  0  0
 10 11  1  0  0  0  0
 10 12  1  0  0  0  0
 10 13  1  0  0  0  0
 13 14  1  0  0  0  0
 13 15  1  0  0  0  0
 13 16  1  0  0  0  0
M  END
> <ChemID>
100514

> <source_casrn>
110-80-5

> <CAS>
110-80-5

> <SMILES>
CCOCCO

> <NAME>
Ethanol, 2-ethoxy-

> <preferred_name>
2-Ethoxyethanol

> <iupac>
2-ethoxyethanol

> <MPID>
100524

> <dsstox_substance_id>
DTXSID7024087

> <Canonical_QSARr>
CCOCCO

> <InChI_Code_QSARr>
InChI=1S/C4H10O2/c1-2-6-4-3-5/h5H,2-4H2,1H3

> <InChI Key_QSARr>
ZNQVEEAIQZEUHB-UHFFFAOYSA-N

> <Salt_Solvent>
?

> <Ready_Biodeg>
1.0

$$$$
100518
  -INDIGO-08031722522D

 17 17  0  0  0  0  0  0  0  0999 V2000
    0.0000    0.0000    0.0000 C   0  0  0  0  0  0  0  0  0  0  0  0
    0.5472    1.5035    0.0000 H   0  0  0  0  0  0  0  0  0  0  0  0
    1.5757   -0.2778    0.0000 H   0  0  0  0  0  0  0  0  0  0  0  0
   -1.3856    0.8000    0.0000 C   0  0  0  0  0  0  0  0  0  0  0  0
   -0.3571    2.0257    0.0000 H   0  0  0  0  0  0  0  0  0  0  0  0
   -2.4141    2.0257    0.0000 H   0  0  0  0  0  0  0  0  0  0  0  0
   -2.7713    0.0000    0.0000 C   0  0  0  0  0  0  0  0  0  0  0  0
   -3.3185    1.5035    0.0000 H   0  0  0  0  0  0  0  0  0  0  0  0
   -4.3470   -0.2778    0.0000 H   0  0  0  0  0  0  0  0  0  0  0  0
   -2.7713   -1.6000    0.0000 N   0  0  0  0  0  0  0  0  0  0  0  0
   -4.1569   -2.4000    0.0000 H   0  0  0  0  0  0  0  0  0  0  0  0
   -1.3856   -2.4000    0.0000 C   0  0  0  0  0  0  0  0  0  0  0  0
   -2.4141   -3.6257    0.0000 H   0  0  0  0  0  0  0  0  0  0  0  0
   -0.3571   -3.6257    0.0000 H   0  0  0  0  0  0  0  0  0  0  0  0
    0.0000   -1.6000    0.0000 C   0  0  0  0  0  0  0  0  0  0  0  0
    0.5472   -3.1035    0.0000 H   0  0  0  0  0  0  0  0  0  0  0  0
    1.5757   -1.3222    0.0000 H   0  0  0  0  0  0  0  0  0  0  0  0
  1  2  1  0  0  0  0
  1  3  1  0  0  0  0
  1  4  1  0  0  0  0
  4  5  1  0  0  0  0
  4  6  1  0  0  0  0
  4  7  1  0  0  0  0
  7  8  1  0  0  0  0
  7  9  1  0  0  0  0
  7 10  1  0  0  0  0
 10 11  1  0  0  0  0
 10 12  1  0  0  0  0
 12 13  1  0  0  0  0
 12 14  1  0  0  0  0
 12 15  1  0  0  0  0
 15  1  1  0  0  0  0
 15 16  1  0  0  0  0
 15 17  1  0  0  0  0
M  END
> <ChemID>
100518

> <source_casrn>
110-89-4

> <CAS>
110-89-4

> <SMILES>
C1CCCCN1

> <NAME>
Piperidine

> <preferred_name>
Piperidine

> <iupac>
piperidine

> <MPID>
100528

> <dsstox_substance_id>
DTXSID6021165

> <Canonical_QSARr>
C1CCCCN1

> <InChI_Code_QSARr>
InChI=1S/C5H11N/c1-2-4-6-5-3-1/h6H,1-5H2

> <InChI Key_QSARr>
NQRYJNQNLNOLGT-UHFFFAOYSA-N

> <Salt_Solvent>
?

> <Ready_Biodeg>
1.0

$$$$
100522
  -INDIGO-08031722522D

 25 24  0  0  0  0  0  0  0  0999 V2000
    5.5425    0.0000    0.0000 C   0  0  0  0  0  0  0  0  0  0  0  0
    6.9282   -0.8000    0.0000 H   0  0  0  0  0  0  0  0  0  0  0  0
    6.9282    0.8000    0.0000 H   0  0  0  0  0  0  0  0  0  0  0  0
    5.5425   -1.6000    0.0000 H   0  0  0  0  0  0  0  0  0  0  0  0
    4.1570    0.8000    0.0000 C   0  0  0  0  0  0  0  0  0  0  0  0
    4.1570    2.4000    0.0000 O   0  0  0  0  0  0  0  0  0  0  0  0
    2.7713    0.0000    0.0000 C   0  0  0  0  0  0  0  0  0  0  0  0
    2.1589   -1.4782    0.0000 H   0  0  0  0  0  0  0  0  0  0  0  0
    3.3836   -1.4782    0.0000 H   0  0  0  0  0  0  0  0  0  0  0  0
    1.3856    0.8000    0.0000 C   0  0  0  0  0  0  0  0  0  0  0  0
    1.9979    2.2782    0.0000 H   0  0  0  0  0  0  0  0  0  0  0  0
    0.7734    2.2782    0.0000 H   0  0  0  0  0  0  0  0  0  0  0  0
    0.0001    0.0000    0.0000 C   0  0  0  0  0  0  0  0  0  0  0  0
   -0.6123   -1.4782    0.0000 H   0  0  0  0  0  0  0  0  0  0  0  0
    0.6122   -1.4782    0.0000 H   0  0  0  0  0  0  0  0  0  0  0  0
   -1.3856    0.8000    0.0000 C   0  0  0  0  0  0  0  0  0  0  0  0
   -0.7733    2.2782    0.0000 H   0  0  0  0  0  0  0  0  0  0  0  0
   -1.9980    2.2782    0.0000 H   0  0  0  0  0  0  0  0  0  0  0  0
   -2.7713    0.0000    0.0000 C   0  0  0  0  0  0  0  0  0  0  0  0
   -3.3835   -1.4782    0.0000 H   0  0  0  0  0  0  0  0  0  0  0  0
   -2.1590   -1.4782    0.0000 H   0  0  0  0  0  0  0  0  0  0  0  0
   -4.1569    0.8000    0.0000 C   0  0  0  0  0  0  0  0  0  0  0  0
   -5.5426    1.6000    0.0000 H   0  0  0  0  0  0  0  0  0  0  0  0
   -5.5426    0.0000    0.0000 H   0  0  0  0  0  0  0  0  0  0  0  0
   -4.1569    2.4000    0.0000 H   0  0  0  0  0  0  0  0  0  0  0  0
  1  2  1  0  0  0  0
  1  3  1  0  0  0  0
  1  4  1  0  0  0  0
  1  5  1  0  0  0  0
  5  6  2  0  0  0  0
  5  7  1  0  0  0  0
  7  8  1  0  0  0  0
  7  9  1  0  0  0  0
  7 10  1  0  0  0  0
 10 11  1  0  0  0  0
 10 12  1  0  0  0  0
 10 13  1  0  0  0  0
 13 14  1  0  0  0  0
 13 15  1  0  0  0  0
 13 16  1  0  0  0  0
 16 17  1  0  0  0  0
 16 18  1  0  0  0  0
 16 19  1  0  0  0  0
 19 20  1  0  0  0  0
 19 21  1  0  0  0  0
 19 22  1  0  0  0  0
 22 23  1  0  0  0  0
 22 24  1  0  0  0  0
 22 25  1  0  0  0  0
M  END
> <ChemID>
100522

> <source_casrn>
111-13-7

> <CAS>
111-13-7

> <SMILES>
CCCCCCC(C)=O

> <NAME>
2-OCTANONE

> <preferred_name>
2-Octanone

> <iupac>
octan-2-one

> <MPID>
100532

> <dsstox_substance_id>
DTXSID4021927

> <Canonical_QSARr>
CCCCCCC(C)=O

> <InChI_Code_QSARr>
InChI=1S/C8H16O/c1-3-4-5-6-7-8(2)9/h3-7H2,1-2H3

> <InChI Key_QSARr>
ZPVFWPFBNIEHGJ-UHFFFAOYSA-N

> <Salt_Solvent>
?

> <Ready_Biodeg>
1.0

$$$$
100526
  -INDIGO-08031722522D

 21 20  0  0  0  0  0  0  0  0999 V2000
    4.1569    0.8000    0.0000 C   0  0  0  0  0  0  0  0  0  0  0  0
    5.5426    1.6000    0.0000 H   0  0  0  0  0  0  0  0  0  0  0  0
    5.5426    0.0000    0.0000 H   0  0  0  0  0  0  0  0  0  0  0  0
    4.1569    2.4000    0.0000 H   0  0  0  0  0  0  0  0  0  0  0  0
    2.7712    0.0000    0.0000 C   0  0  0  0  0  0  0  0  0  0  0  0
    3.3836   -1.4782    0.0000 H   0  0  0  0  0  0  0  0  0  0  0  0
    2.1589   -1.4782    0.0000 H   0  0  0  0  0  0  0  0  0  0  0  0
    1.3856    0.8000    0.0000 C   0  0  0  0  0  0  0  0  0  0  0  0
    0.7734    2.2782    0.0000 H   0  0  0  0  0  0  0  0  0  0  0  0
    1.9979    2.2782    0.0000 H   0  0  0  0  0  0  0  0  0  0  0  0
    0.0001    0.0000    0.0000 C   0  0  0  0  0  0  0  0  0  0  0  0
    0.6122   -1.4782    0.0000 H   0  0  0  0  0  0  0  0  0  0  0  0
   -0.6122   -1.4782    0.0000 H   0  0  0  0  0  0  0  0  0  0  0  0
   -1.3856    0.8000    0.0000 C   0  0  0  0  0  0  0  0  0  0  0  0
   -1.9979    2.2782    0.0000 H   0  0  0  0  0  0  0  0  0  0  0  0
   -0.7734    2.2782    0.0000 H   0  0  0  0  0  0  0  0  0  0  0  0
   -2.7712    0.0000    0.0000 C   0  0  0  0  0  0  0  0  0  0  0  0
   -2.1589   -1.4782    0.0000 H   0  0  0  0  0  0  0  0  0  0  0  0
   -3.3836   -1.4782    0.0000 H   0  0  0  0  0  0  0  0  0  0  0  0
   -4.1569    0.8000    0.0000 O   0  0  0  0  0  0  0  0  0  0  0  0
   -5.5426    0.0000    0.0000 H   0  0  0  0  0  0  0  0  0  0  0  0
  1  2  1  0  0  0  0
  1  3  1  0  0  0  0
  1  4  1  0  0  0  0
  1  5  1  0  0  0  0
  5  6  1  0  0  0  0
  5  7  1  0  0  0  0
  5  8  1  0  0  0  0
  8  9  1  0  0  0  0
  8 10  1  0  0  0  0
  8 11  1  0  0  0  0
 11 12  1  0  0  0  0
 11 13  1  0  0  0  0
 11 14  1  0  0  0  0
 14 15  1  0  0  0  0
 14 16  1  0  0  0  0
 14 17  1  0  0  0  0
 17 18  1  0  0  0  0
 17 19  1  0  0  0  0
 17 20  1  0  0  0  0
 20 21  1  0  0  0  0
M  END
> <ChemID>
100526

> <source_casrn>
111-27-3

> <CAS>
111-27-3

> <SMILES>
CCCCCCO

> <NAME>
n-Hexyl alcohol

> <preferred_name>
1-Hexanol

> <iupac>
hexan-1-ol

> <MPID>
100536

> <dsstox_substance_id>
DTXSID8021931

> <Canonical_QSARr>
CCCCCCO

> <InChI_Code_QSARr>
InChI=1S/C6H14O/c1-2-3-4-5-6-7/h7H,2-6H2,1H3

> <InChI Key_QSARr>
ZSIAUFGUXNUGDI-UHFFFAOYSA-N

> <Salt_Solvent>
?

> <Ready_Biodeg>
1.0

$$$$
100530
  -INDIGO-08031722522D

 18 17  0  0  0  0  0  0  0  0999 V2000
    2.7713    0.0000    0.0000 O   0  0  0  0  0  0  0  0  0  0  0  0
    4.1569    0.8000    0.0000 H   0  0  0  0  0  0  0  0  0  0  0  0
    1.3856    0.8000    0.0000 C   0  0  0  0  0  0  0  0  0  0  0  0
    1.9979    2.2782    0.0000 H   0  0  0  0  0  0  0  0  0  0  0  0
    0.7733    2.2782    0.0000 H   0  0  0  0  0  0  0  0  0  0  0  0
   -0.0001    0.0000    0.0000 C   0  0  0  0  0  0  0  0  0  0  0  0
   -0.6122   -1.4782    0.0000 H   0  0  0  0  0  0  0  0  0  0  0  0
    0.6123   -1.4782    0.0000 H   0  0  0  0  0  0  0  0  0  0  0  0
   -1.3856    0.8000    0.0000 N   0  0  0  0  0  0  0  0  0  0  0  0
   -1.3856    2.4000    0.0000 H   0  0  0  0  0  0  0  0  0  0  0  0
   -2.7712    0.0000    0.0000 C   0  0  0  0  0  0  0  0  0  0  0  0
   -3.3835   -1.4782    0.0000 H   0  0  0  0  0  0  0  0  0  0  0  0
   -2.1591   -1.4782    0.0000 H   0  0  0  0  0  0  0  0  0  0  0  0
   -4.1569    0.8000    0.0000 C   0  0  0  0  0  0  0  0  0  0  0  0
   -3.5446    2.2782    0.0000 H   0  0  0  0  0  0  0  0  0  0  0  0
   -4.7692    2.2782    0.0000 H   0  0  0  0  0  0  0  0  0  0  0  0
   -5.5425    0.0000    0.0000 O   0  0  0  0  0  0  0  0  0  0  0  0
   -6.9282    0.8000    0.0000 H   0  0  0  0  0  0  0  0  0  0  0  0
  1  2  1  0  0  0  0
  1  3  1  0  0  0  0
  3  4  1  0  0  0  0
  3  5  1  0  0  0  0
  3  6  1  0  0  0  0
  6  7  1  0  0  0  0
  6  8  1  0  0  0  0
  6  9  1  0  0  0  0
  9 10  1  0  0  0  0
  9 11  1  0  0  0  0
 11 12  1  0  0  0  0
 11 13  1  0  0  0  0
 11 14  1  0  0  0  0
 14 15  1  0  0  0  0
 14 16  1  0  0  0  0
 14 17  1  0  0  0  0
 17 18  1  0  0  0  0
M  END
> <ChemID>
100530

> <source_casrn>
111-42-2

> <CAS>
111-42-2

> <SMILES>
OCCNCCO

> <NAME>
Ethanol, 2,2'-iminobis-

> <preferred_name>
Diethanolamine

> <iupac>
2,2'-iminodiethanol

> <MPID>
100540

> <dsstox_substance_id>
DTXSID3021932

> <Canonical_QSARr>
OCCNCCO

> <InChI_Code_QSARr>
InChI=1S/C4H11NO2/c6-3-1-5-2-4-7/h5-7H,1-4H2

> <InChI Key_QSARr>
ZBCBWPMODOFKDW-UHFFFAOYSA-N

> <Salt_Solvent>
?

> <Ready_Biodeg>
1.0

$$$$
100534
  -INDIGO-08031722522D

 20 19  0  0  0  0  0  0  0  0999 V2000
   -0.0001    0.0000    0.0000 C   0  0  0  0  0  0  0  0  0  0  0  0
    0.6123    1.4782    0.0000 H   0  0  0  0  0  0  0  0  0  0  0  0
   -0.6122    1.4782    0.0000 H   0  0  0  0  0  0  0  0  0  0  0  0
   -1.3856   -0.8000    0.0000 C   0  0  0  0  0  0  0  0  0  0  0  0
   -1.9979   -2.2782    0.0000 H   0  0  0  0  0  0  0  0  0  0  0  0
   -0.7734   -2.2782    0.0000 H   0  0  0  0  0  0  0  0  0  0  0  0
   -2.7713    0.0000    0.0000 O   0  0  0  0  0  0  0  0  0  0  0  0
   -4.1570   -0.8000    0.0000 C   0  0  0  0  0  0  0  0  0  0  0  0
   -4.1570   -2.4000    0.0000 O   0  0  0  0  0  0  0  0  0  0  0  0
   -5.5425    0.0000    0.0000 C   0  0  0  0  0  0  0  0  0  0  0  0
   -6.9282    0.8000    0.0000 H   0  0  0  0  0  0  0  0  0  0  0  0
   -6.9282   -0.8000    0.0000 H   0  0  0  0  0  0  0  0  0  0  0  0
   -5.5425    1.6000    0.0000 H   0  0  0  0  0  0  0  0  0  0  0  0
    1.3856   -0.8000    0.0000 O   0  0  0  0  0  0  0  0  0  0  0  0
    2.7713    0.0000    0.0000 C   0  0  0  0  0  0  0  0  0  0  0  0
    2.7713    1.6000    0.0000 O   0  0  0  0  0  0  0  0  0  0  0  0
    4.1569   -0.8000    0.0000 C   0  0  0  0  0  0  0  0  0  0  0  0
    5.5426   -1.6000    0.0000 H   0  0  0  0  0  0  0  0  0  0  0  0
    5.5426    0.0000    0.0000 H   0  0  0  0  0  0  0  0  0  0  0  0
    4.1569   -2.4000    0.0000 H   0  0  0  0  0  0  0  0  0  0  0  0
  1  2  1  0  0  0  0
  1  3  1  0  0  0  0
  1  4  1  0  0  0  0
  4  5  1  0  0  0  0
  4  6  1  0  0  0  0
  4  7  1  0  0  0  0
  7  8  1  0  0  0  0
  8  9  2  0  0  0  0
  8 10  1  0  0  0  0
 10 11  1  0  0  0  0
 10 12  1  0  0  0  0
 10 13  1  0  0  0  0
  1 14  1  0  0  0  0
 14 15  1  0  0  0  0
 15 16  2  0  0  0  0
 15 17  1  0  0  0  0
 17 18  1  0  0  0  0
 17 19  1  0  0  0  0
 17 20  1  0  0  0  0
M  END
> <ChemID>
100534

> <source_casrn>
111-55-7

> <CAS>
111-55-7

> <SMILES>
CC(=O)OCCOC(C)=O

> <NAME>
Ethylene glycol diacetate

> <preferred_name>
1,2-Ethanediol diacetate

> <iupac>
ethane-1,2-diyl diacetate

> <MPID>
100544

> <dsstox_substance_id>
DTXSID0026880

> <Canonical_QSARr>
CC(=O)OCCOC(C)=O

> <InChI_Code_QSARr>
InChI=1S/C6H10O4/c1-5(7)9-3-4-10-6(2)8/h3-4H2,1-2H3

> <InChI Key_QSARr>
JTXMVXSTHSMVQF-UHFFFAOYSA-N

> <Salt_Solvent>
?

> <Ready_Biodeg>
1.0

$$$$
100538
  -INDIGO-08031722522D

 22 21  0  0  0  0  0  0  0  0999 V2000
    6.9281    0.8000    0.0000 O   0  0  0  0  0  0  0  0  0  0  0  0
    8.3138   -0.0000    0.0000 H   0  0  0  0  0  0  0  0  0  0  0  0
    5.5426   -0.0000    0.0000 C   0  0  0  0  0  0  0  0  0  0  0  0
    4.9303   -1.4782    0.0000 H   0  0  0  0  0  0  0  0  0  0  0  0
    6.1548   -1.4782    0.0000 H   0  0  0  0  0  0  0  0  0  0  0  0
    4.1569    0.8000    0.0000 C   0  0  0  0  0  0  0  0  0  0  0  0
    4.7693    2.2782    0.0000 H   0  0  0  0  0  0  0  0  0  0  0  0
    3.5446    2.2782    0.0000 H   0  0  0  0  0  0  0  0  0  0  0  0
    2.7712   -0.0000    0.0000 O   0  0  0  0  0  0  0  0  0  0  0  0
    1.3857    0.8000    0.0000 C   0  0  0  0  0  0  0  0  0  0  0  0
    1.9979    2.2782    0.0000 H   0  0  0  0  0  0  0  0  0  0  0  0
    0.7733    2.2782    0.0000 H   0  0  0  0  0  0  0  0  0  0  0  0
    0.0000   -0.0000    0.0000 C   0  0  0  0  0  0  0  0  0  0  0  0
   -0.6124   -1.4782    0.0000 H   0  0  0  0  0  0  0  0  0  0  0  0
    0.6124   -1.4782    0.0000 H   0  0  0  0  0  0  0  0  0  0  0  0
   -1.3857    0.8000    0.0000 C   0  0  0  0  0  0  0  0  0  0  0  0
   -0.7733    2.2782    0.0000 H   0  0  0  0  0  0  0  0  0  0  0  0
   -1.9979    2.2782    0.0000 H   0  0  0  0  0  0  0  0  0  0  0  0
   -2.7712   -0.0000    0.0000 C   0  0  0  0  0  0  0  0  0  0  0  0
   -4.1569   -0.8000    0.0000 H   0  0  0  0  0  0  0  0  0  0  0  0
   -4.1569    0.8000    0.0000 H   0  0  0  0  0  0  0  0  0  0  0  0
   -2.7712   -1.6000    0.0000 H   0  0  0  0  0  0  0  0  0  0  0  0
  1  2  1  0  0  0  0
  1  3  1  0  0  0  0
  3  4  1  0  0  0  0
  3  5  1  0  0  0  0
  3  6  1  0  0  0  0
  6  7  1  0  0  0  0
  6  8  1  0  0  0  0
  6  9  1  0  0  0  0
  9 10  1  0  0  0  0
 10 11  1  0  0  0  0
 10 12  1  0  0  0  0
 10 13  1  0  0  0  0
 13 14  1  0  0  0  0
 13 15  1  0  0  0  0
 13 16  1  0  0  0  0
 16 17  1  0  0  0  0
 16 18  1  0  0  0  0
 16 19  1  0  0  0  0
 19 20  1  0  0  0  0
 19 21  1  0  0  0  0
 19 22  1  0  0  0  0
M  END
> <ChemID>
100538

> <source_casrn>
111-76-2

> <CAS>
111-76-2

> <SMILES>
CCCCOCCO

> <NAME>
Ethanol, 2-butoxy-

> <preferred_name>
2-Butoxyethanol

> <iupac>
C6H14O2

> <MPID>
100548

> <dsstox_substance_id>
DTXSID1024097

> <Canonical_QSARr>
CCCCOCCO

> <InChI_Code_QSARr>
InChI=1S/C6H14O2/c1-2-3-5-8-6-4-7/h7H,2-6H2,1H3

> <InChI Key_QSARr>
POAOYUHQDCAZBD-UHFFFAOYSA-N

> <Salt_Solvent>
?

> <Ready_Biodeg>
1.0

$$$$
100542
  -INDIGO-08031722522D

 28 27  0  0  0  0  0  0  0  0999 V2000
    2.7712   -0.0000    0.0000 N   0  0  0  0  0  0  0  0  0  0  0  0
    2.7712   -1.6000    0.0000 H   0  0  0  0  0  0  0  0  0  0  0  0
    4.1569    0.8000    0.0000 C   0  0  0  0  0  0  0  0  0  0  0  0
    3.5446    2.2782    0.0000 H   0  0  0  0  0  0  0  0  0  0  0  0
    4.7692    2.2782    0.0000 H   0  0  0  0  0  0  0  0  0  0  0  0
    5.5427   -0.0000    0.0000 C   0  0  0  0  0  0  0  0  0  0  0  0
    6.1548   -1.4782    0.0000 H   0  0  0  0  0  0  0  0  0  0  0  0
    4.9304   -1.4782    0.0000 H   0  0  0  0  0  0  0  0  0  0  0  0
    6.9282    0.8000    0.0000 C   0  0  0  0  0  0  0  0  0  0  0  0
    6.3159    2.2782    0.0000 H   0  0  0  0  0  0  0  0  0  0  0  0
    7.5405    2.2782    0.0000 H   0  0  0  0  0  0  0  0  0  0  0  0
    8.3139   -0.0000    0.0000 C   0  0  0  0  0  0  0  0  0  0  0  0
    9.6995   -0.8000    0.0000 H   0  0  0  0  0  0  0  0  0  0  0  0
    9.6995    0.8000    0.0000 H   0  0  0  0  0  0  0  0  0  0  0  0
    8.3139   -1.6000    0.0000 H   0  0  0  0  0  0  0  0  0  0  0  0
    1.3856    0.8000    0.0000 C   0  0  0  0  0  0  0  0  0  0  0  0
    0.7733    2.2782    0.0000 H   0  0  0  0  0  0  0  0  0  0  0  0
    1.9980    2.2782    0.0000 H   0  0  0  0  0  0  0  0  0  0  0  0
   -0.0001   -0.0000    0.0000 C   0  0  0  0  0  0  0  0  0  0  0  0
    0.6122   -1.4782    0.0000 H   0  0  0  0  0  0  0  0  0  0  0  0
   -0.6122   -1.4782    0.0000 H   0  0  0  0  0  0  0  0  0  0  0  0
   -1.3856    0.8000    0.0000 C   0  0  0  0  0  0  0  0  0  0  0  0
   -1.9980    2.2782    0.0000 H   0  0  0  0  0  0  0  0  0  0  0  0
   -0.7733    2.2782    0.0000 H   0  0  0  0  0  0  0  0  0  0  0  0
   -2.7714   -0.0000    0.0000 C   0  0  0  0  0  0  0  0  0  0  0  0
   -4.1569   -0.8000    0.0000 H   0  0  0  0  0  0  0  0  0  0  0  0
   -4.1569    0.8000    0.0000 H   0  0  0  0  0  0  0  0  0  0  0  0
   -2.7714   -1.6000    0.0000 H   0  0  0  0  0  0  0  0  0  0  0  0
  1  2  1  0  0  0  0
  1  3  1  0  0  0  0
  3  4  1  0  0  0  0
  3  5  1  0  0  0  0
  3  6  1  0  0  0  0
  6  7  1  0  0  0  0
  6  8  1  0  0  0  0
  6  9  1  0  0  0  0
  9 10  1  0  0  0  0
  9 11  1  0  0  0  0
  9 12  1  0  0  0  0
 12 13  1  0  0  0  0
 12 14  1  0  0  0  0
 12 15  1  0  0  0  0
  1 16  1  0  0  0  0
 16 17  1  0  0  0  0
 16 18  1  0  0  0  0
 16 19  1  0  0  0  0
 19 20  1  0  0  0  0
 19 21  1  0  0  0  0
 19 22  1  0  0  0  0
 22 23  1  0  0  0  0
 22 24  1  0  0  0  0
 22 25  1  0  0  0  0
 25 26  1  0  0  0  0
 25 27  1  0  0  0  0
 25 28  1  0  0  0  0
M  END
> <ChemID>
100542

> <source_casrn>
111-92-2

> <CAS>
111-92-2

> <SMILES>
CCCCNCCCC

> <NAME>
1-Butanamine, N-butyl-

> <preferred_name>
N-Butyl-1-butanamine

> <iupac>
N-butylbutan-1-amine

> <MPID>
100552

> <dsstox_substance_id>
DTXSID7024952

> <Canonical_QSARr>
CCCCNCCCC

> <InChI_Code_QSARr>
InChI=1S/C8H19N/c1-3-5-7-9-8-6-4-2/h9H,3-8H2,1-2H3

> <InChI Key_QSARr>
JQVDAXLFBXTEQA-UHFFFAOYSA-N

> <Salt_Solvent>
?

> <Ready_Biodeg>
1.0

$$$$
100546
  -INDIGO-08031722522D

 46 45  0  0  0  0  0  0  0  0999 V2000
    6.9282    0.8000    0.0000 C   0  0  0  0  0  0  0  0  0  0  0  0
    7.5406    2.2782    0.0000 H   0  0  0  0  0  0  0  0  0  0  0  0
    6.3158    2.2782    0.0000 H   0  0  0  0  0  0  0  0  0  0  0  0
    5.5426    0.0000    0.0000 C   0  0  0  0  0  0  0  0  0  0  0  0
    4.9301   -1.4782    0.0000 H   0  0  0  0  0  0  0  0  0  0  0  0
    6.1550   -1.4782    0.0000 H   0  0  0  0  0  0  0  0  0  0  0  0
    4.1569    0.8000    0.0000 C   0  0  0  0  0  0  0  0  0  0  0  0
    4.7693    2.2782    0.0000 H   0  0  0  0  0  0  0  0  0  0  0  0
    3.5445    2.2782    0.0000 H   0  0  0  0  0  0  0  0  0  0  0  0
    2.7713    0.0000    0.0000 C   0  0  0  0  0  0  0  0  0  0  0  0
    2.1589   -1.4782    0.0000 H   0  0  0  0  0  0  0  0  0  0  0  0
    3.3837   -1.4782    0.0000 H   0  0  0  0  0  0  0  0  0  0  0  0
    1.3856    0.8000    0.0000 C   0  0  0  0  0  0  0  0  0  0  0  0
    1.9981    2.2782    0.0000 H   0  0  0  0  0  0  0  0  0  0  0  0
    0.7732    2.2782    0.0000 H   0  0  0  0  0  0  0  0  0  0  0  0
    0.0000    0.0000    0.0000 C   0  0  0  0  0  0  0  0  0  0  0  0
   -0.6124   -1.4782    0.0000 H   0  0  0  0  0  0  0  0  0  0  0  0
    0.6124   -1.4782    0.0000 H   0  0  0  0  0  0  0  0  0  0  0  0
   -1.3856    0.8000    0.0000 C   0  0  0  0  0  0  0  0  0  0  0  0
   -0.7732    2.2782    0.0000 H   0  0  0  0  0  0  0  0  0  0  0  0
   -1.9981    2.2782    0.0000 H   0  0  0  0  0  0  0  0  0  0  0  0
   -2.7713    0.0000    0.0000 C   0  0  0  0  0  0  0  0  0  0  0  0
   -3.3837   -1.4782    0.0000 H   0  0  0  0  0  0  0  0  0  0  0  0
   -2.1589   -1.4782    0.0000 H   0  0  0  0  0  0  0  0  0  0  0  0
   -4.1569    0.8000    0.0000 C   0  0  0  0  0  0  0  0  0  0  0  0
   -3.5445    2.2782    0.0000 H   0  0  0  0  0  0  0  0  0  0  0  0
   -4.7693    2.2782    0.0000 H   0  0  0  0  0  0  0  0  0  0  0  0
   -5.5426    0.0000    0.0000 C   0  0  0  0  0  0  0  0  0  0  0  0
   -6.1550   -1.4782    0.0000 H   0  0  0  0  0  0  0  0  0  0  0  0
   -4.9301   -1.4782    0.0000 H   0  0  0  0  0  0  0  0  0  0  0  0
   -6.9282    0.8000    0.0000 C   0  0  0  0  0  0  0  0  0  0  0  0
   -6.3158    2.2782    0.0000 H   0  0  0  0  0  0  0  0  0  0  0  0
   -7.5406    2.2782    0.0000 H   0  0  0  0  0  0  0  0  0  0  0  0
   -8.3138    0.0000    0.0000 C   0  0  0  0  0  0  0  0  0  0  0  0
   -9.6995   -0.8000    0.0000 H   0  0  0  0  0  0  0  0  0  0  0  0
   -9.6995    0.8000    0.0000 H   0  0  0  0  0  0  0  0  0  0  0  0
   -8.3138   -1.6000    0.0000 H   0  0  0  0  0  0  0  0  0  0  0  0
    8.3138    0.0000    0.0000 N   0  0  0  0  0  0  0  0  0  0  0  0
    9.6995    0.8000    0.0000 C   0  0  0  0  0  0  0  0  0  0  0  0
   11.0851    1.6000    0.0000 H   0  0  0  0  0  0  0  0  0  0  0  0
   11.0851    0.0000    0.0000 H   0  0  0  0  0  0  0  0  0  0  0  0
    9.6995    2.4000    0.0000 H   0  0  0  0  0  0  0  0  0  0  0  0
    8.3138   -1.6000    0.0000 C   0  0  0  0  0  0  0  0  0  0  0  0
    8.3138   -3.2000    0.0000 H   0  0  0  0  0  0  0  0  0  0  0  0
    9.6995   -2.4000    0.0000 H   0  0  0  0  0  0  0  0  0  0  0  0
    6.9282   -2.4000    0.0000 H   0  0  0  0  0  0  0  0  0  0  0  0
  1  2  1  0  0  0  0
  1  3  1  0  0  0  0
  1  4  1  0  0  0  0
  4  5  1  0  0  0  0
  4  6  1  0  0  0  0
  4  7  1  0  0  0  0
  7  8  1  0  0  0  0
  7  9  1  0  0  0  0
  7 10  1  0  0  0  0
 10 11  1  0  0  0  0
 10 12  1  0  0  0  0
 10 13  1  0  0  0  0
 13 14  1  0  0  0  0
 13 15  1  0  0  0  0
 13 16  1  0  0  0  0
 16 17  1  0  0  0  0
 16 18  1  0  0  0  0
 16 19  1  0  0  0  0
 19 20  1  0  0  0  0
 19 21  1  0  0  0  0
 19 22  1  0  0  0  0
 22 23  1  0  0  0  0
 22 24  1  0  0  0  0
 22 25  1  0  0  0  0
 25 26  1  0  0  0  0
 25 27  1  0  0  0  0
 25 28  1  0  0  0  0
 28 29  1  0  0  0  0
 28 30  1  0  0  0  0
 28 31  1  0  0  0  0
 31 32  1  0  0  0  0
 31 33  1  0  0  0  0
 31 34  1  0  0  0  0
 34 35  1  0  0  0  0
 34 36  1  0  0  0  0
 34 37  1  0  0  0  0
  1 38  1  0  0  0  0
 38 39  1  0  0  0  0
 39 40  1  0  0  0  0
 39 41  1  0  0  0  0
 39 42  1  0  0  0  0
 38 43  1  0  0  0  0
 43 44  1  0  0  0  0
 43 45  1  0  0  0  0
 43 46  1  0  0  0  0
M  END
> <ChemID>
100546

> <source_casrn>
112-18-5

> <CAS>
112-18-5

> <SMILES>
CCCCCCCCCCCCN(C)C

> <NAME>
1-Dodecanamine, N,N-dimethyl-

> <preferred_name>
N,N-Dimethyldodecan-1-amine

> <iupac>
N,N-dimethyldodecan-1-amine

> <MPID>
100556

> <dsstox_substance_id>
DTXSID1026906

> <Canonical_QSARr>
CCCCCCCCCCCCN(C)C

> <InChI_Code_QSARr>
InChI=1S/C14H31N/c1-4-5-6-7-8-9-10-11-12-13-14-15(2)3/h4-14H2,1-3H3

> <InChI Key_QSARr>
YWFWDNVOPHGWMX-UHFFFAOYSA-N

> <Salt_Solvent>
?

> <Ready_Biodeg>
1.0

$$$$
100550
  -INDIGO-08031722522D

 29 28  0  0  0  0  0  0  0  0999 V2000
    2.7713   -0.0000    0.0000 C   0  0  0  0  0  0  0  0  0  0  0  0
    4.1569   -0.8000    0.0000 H   0  0  0  0  0  0  0  0  0  0  0  0
    4.1569    0.8000    0.0000 H   0  0  0  0  0  0  0  0  0  0  0  0
    2.7713   -1.6000    0.0000 H   0  0  0  0  0  0  0  0  0  0  0  0
    1.3858    0.8000    0.0000 C   0  0  0  0  0  0  0  0  0  0  0  0
    0.7733    2.2782    0.0000 H   0  0  0  0  0  0  0  0  0  0  0  0
    1.9980    2.2782    0.0000 H   0  0  0  0  0  0  0  0  0  0  0  0
   -0.0001   -0.0000    0.0000 C   0  0  0  0  0  0  0  0  0  0  0  0
    0.6122   -1.4782    0.0000 H   0  0  0  0  0  0  0  0  0  0  0  0
   -0.6123   -1.4782    0.0000 H   0  0  0  0  0  0  0  0  0  0  0  0
   -1.3856    0.8000    0.0000 C   0  0  0  0  0  0  0  0  0  0  0  0
   -1.9979    2.2782    0.0000 H   0  0  0  0  0  0  0  0  0  0  0  0
   -0.7734    2.2782    0.0000 H   0  0  0  0  0  0  0  0  0  0  0  0
   -2.7712   -0.0000    0.0000 O   0  0  0  0  0  0  0  0  0  0  0  0
   -4.1568    0.8000    0.0000 C   0  0  0  0  0  0  0  0  0  0  0  0
   -4.7693    2.2782    0.0000 H   0  0  0  0  0  0  0  0  0  0  0  0
   -3.5446    2.2782    0.0000 H   0  0  0  0  0  0  0  0  0  0  0  0
   -5.5426   -0.0000    0.0000 C   0  0  0  0  0  0  0  0  0  0  0  0
   -4.9304   -1.4782    0.0000 H   0  0  0  0  0  0  0  0  0  0  0  0
   -6.1549   -1.4782    0.0000 H   0  0  0  0  0  0  0  0  0  0  0  0
   -6.9282    0.8000    0.0000 O   0  0  0  0  0  0  0  0  0  0  0  0
   -8.3138   -0.0000    0.0000 C   0  0  0  0  0  0  0  0  0  0  0  0
   -7.7015   -1.4782    0.0000 H   0  0  0  0  0  0  0  0  0  0  0  0
   -8.9260   -1.4782    0.0000 H   0  0  0  0  0  0  0  0  0  0  0  0
   -9.6994    0.8000    0.0000 C   0  0  0  0  0  0  0  0  0  0  0  0
  -10.3118    2.2782    0.0000 H   0  0  0  0  0  0  0  0  0  0  0  0
   -9.0871    2.2782    0.0000 H   0  0  0  0  0  0  0  0  0  0  0  0
  -11.0852   -0.0000    0.0000 O   0  0  0  0  0  0  0  0  0  0  0  0
  -12.4708    0.8000    0.0000 H   0  0  0  0  0  0  0  0  0  0  0  0
  1  2  1  0  0  0  0
  1  3  1  0  0  0  0
  1  4  1  0  0  0  0
  1  5  1  0  0  0  0
  5  6  1  0  0  0  0
  5  7  1  0  0  0  0
  5  8  1  0  0  0  0
  8  9  1  0  0  0  0
  8 10  1  0  0  0  0
  8 11  1  0  0  0  0
 11 12  1  0  0  0  0
 11 13  1  0  0  0  0
 11 14  1  0  0  0  0
 14 15  1  0  0  0  0
 15 16  1  0  0  0  0
 15 17  1  0  0  0  0
 15 18  1  0  0  0  0
 18 19  1  0  0  0  0
 18 20  1  0  0  0  0
 18 21  1  0  0  0  0
 21 22  1  0  0  0  0
 22 23  1  0  0  0  0
 22 24  1  0  0  0  0
 22 25  1  0  0  0  0
 25 26  1  0  0  0  0
 25 27  1  0  0  0  0
 25 28  1  0  0  0  0
 28 29  1  0  0  0  0
M  END
> <ChemID>
100550

> <source_casrn>
112-34-5

> <CAS>
112-34-5

> <SMILES>
CCCCOCCOCCO

> <NAME>
Ethanol, 2-(2-butoxyethoxy)-

> <preferred_name>
2-(2-Butoxyethoxy)ethanol

> <iupac>
2-(2-butoxyethoxy)ethanol

> <MPID>
100560

> <dsstox_substance_id>
DTXSID8021519

> <Canonical_QSARr>
CCCCOCCOCCO

> <InChI_Code_QSARr>
InChI=1S/C8H18O3/c1-2-3-5-10-7-8-11-6-4-9/h9H,2-8H2,1H3

> <InChI Key_QSARr>
OAYXUHPQHDHDDZ-UHFFFAOYSA-N

> <Salt_Solvent>
?

> <Ready_Biodeg>
1.0

$$$$
100554
  -INDIGO-08031722522D

 39 38  0  0  0  0  0  0  0  0999 V2000
    6.9282    0.8000    0.0000 C   0  0  0  0  0  0  0  0  0  0  0  0
    7.5404    2.2782    0.0000 H   0  0  0  0  0  0  0  0  0  0  0  0
    6.3158    2.2782    0.0000 H   0  0  0  0  0  0  0  0  0  0  0  0
    5.5426   -0.0000    0.0000 C   0  0  0  0  0  0  0  0  0  0  0  0
    4.9302   -1.4782    0.0000 H   0  0  0  0  0  0  0  0  0  0  0  0
    6.1548   -1.4782    0.0000 H   0  0  0  0  0  0  0  0  0  0  0  0
    4.1570    0.8000    0.0000 C   0  0  0  0  0  0  0  0  0  0  0  0
    4.7692    2.2782    0.0000 H   0  0  0  0  0  0  0  0  0  0  0  0
    3.5446    2.2782    0.0000 H   0  0  0  0  0  0  0  0  0  0  0  0
    2.7714   -0.0000    0.0000 C   0  0  0  0  0  0  0  0  0  0  0  0
    2.1589   -1.4782    0.0000 H   0  0  0  0  0  0  0  0  0  0  0  0
    3.3835   -1.4782    0.0000 H   0  0  0  0  0  0  0  0  0  0  0  0
    1.3858    0.8000    0.0000 C   0  0  0  0  0  0  0  0  0  0  0  0
    1.9979    2.2782    0.0000 H   0  0  0  0  0  0  0  0  0  0  0  0
    0.7733    2.2782    0.0000 H   0  0  0  0  0  0  0  0  0  0  0  0
    0.0001   -0.0000    0.0000 C   0  0  0  0  0  0  0  0  0  0  0  0
   -0.6123   -1.4782    0.0000 H   0  0  0  0  0  0  0  0  0  0  0  0
    0.6123   -1.4782    0.0000 H   0  0  0  0  0  0  0  0  0  0  0  0
   -1.3858    0.8000    0.0000 C   0  0  0  0  0  0  0  0  0  0  0  0
   -0.7733    2.2782    0.0000 H   0  0  0  0  0  0  0  0  0  0  0  0
   -1.9979    2.2782    0.0000 H   0  0  0  0  0  0  0  0  0  0  0  0
   -2.7714   -0.0000    0.0000 C   0  0  0  0  0  0  0  0  0  0  0  0
   -3.3835   -1.4782    0.0000 H   0  0  0  0  0  0  0  0  0  0  0  0
   -2.1589   -1.4782    0.0000 H   0  0  0  0  0  0  0  0  0  0  0  0
   -4.1570    0.8000    0.0000 C   0  0  0  0  0  0  0  0  0  0  0  0
   -3.5446    2.2782    0.0000 H   0  0  0  0  0  0  0  0  0  0  0  0
   -4.7692    2.2782    0.0000 H   0  0  0  0  0  0  0  0  0  0  0  0
   -5.5426   -0.0000    0.0000 C   0  0  0  0  0  0  0  0  0  0  0  0
   -6.1548   -1.4782    0.0000 H   0  0  0  0  0  0  0  0  0  0  0  0
   -4.9302   -1.4782    0.0000 H   0  0  0  0  0  0  0  0  0  0  0  0
   -6.9282    0.8000    0.0000 C   0  0  0  0  0  0  0  0  0  0  0  0
   -6.3158    2.2782    0.0000 H   0  0  0  0  0  0  0  0  0  0  0  0
   -7.5404    2.2782    0.0000 H   0  0  0  0  0  0  0  0  0  0  0  0
   -8.3139   -0.0000    0.0000 C   0  0  0  0  0  0  0  0  0  0  0  0
   -9.6995   -0.8000    0.0000 H   0  0  0  0  0  0  0  0  0  0  0  0
   -9.6995    0.8000    0.0000 H   0  0  0  0  0  0  0  0  0  0  0  0
   -8.3139   -1.6000    0.0000 H   0  0  0  0  0  0  0  0  0  0  0  0
    8.3139   -0.0000    0.0000 O   0  0  0  0  0  0  0  0  0  0  0  0
    9.6995    0.8000    0.0000 H   0  0  0  0  0  0  0  0  0  0  0  0
  1  2  1  0  0  0  0
  1  3  1  0  0  0  0
  1  4  1  0  0  0  0
  4  5  1  0  0  0  0
  4  6  1  0  0  0  0
  4  7  1  0  0  0  0
  7  8  1  0  0  0  0
  7  9  1  0  0  0  0
  7 10  1  0  0  0  0
 10 11  1  0  0  0  0
 10 12  1  0  0  0  0
 10 13  1  0  0  0  0
 13 14  1  0  0  0  0
 13 15  1  0  0  0  0
 13 16  1  0  0  0  0
 16 17  1  0  0  0  0
 16 18  1  0  0  0  0
 16 19  1  0  0  0  0
 19 20  1  0  0  0  0
 19 21  1  0  0  0  0
 19 22  1  0  0  0  0
 22 23  1  0  0  0  0
 22 24  1  0  0  0  0
 22 25  1  0  0  0  0
 25 26  1  0  0  0  0
 25 27  1  0  0  0  0
 25 28  1  0  0  0  0
 28 29  1  0  0  0  0
 28 30  1  0  0  0  0
 28 31  1  0  0  0  0
 31 32  1  0  0  0  0
 31 33  1  0  0  0  0
 31 34  1  0  0  0  0
 34 35  1  0  0  0  0
 34 36  1  0  0  0  0
 34 37  1  0  0  0  0
  1 38  1  0  0  0  0
 38 39  1  0  0  0  0
M  END
> <ChemID>
100554

> <source_casrn>
112-53-8

> <CAS>
112-53-8

> <SMILES>
CCCCCCCCCCCCO

> <NAME>
1-Dodecanol

> <preferred_name>
1-Dodecanol

> <iupac>
dodecan-1-ol

> <MPID>
100564

> <dsstox_substance_id>
DTXSID5026918

> <Canonical_QSARr>
CCCCCCCCCCCCO

> <InChI_Code_QSARr>
InChI=1S/C12H26O/c1-2-3-4-5-6-7-8-9-10-11-12-13/h13H,2-12H2,1H3

> <InChI Key_QSARr>
LQZZUXJYWNFBMV-UHFFFAOYSA-N

> <Salt_Solvent>
?

> <Ready_Biodeg>
1.0

$$$$
100558
  -INDIGO-08031722522D

 54 53  0  0  0  0  0  0  0  0999 V2000
  -18.0131    0.8000    0.0000 C   0  0  0  0  0  0  0  0  0  0  0  0
  -18.0131    2.4000    0.0000 O   0  0  0  0  0  0  0  0  0  0  0  0
  -19.3989    0.0000    0.0000 O   0  0  0  0  0  0  0  0  0  0  0  0
  -20.7846    0.8000    0.0000 H   0  0  0  0  0  0  0  0  0  0  0  0
  -16.6278    0.0000    0.0000 C   0  0  0  0  0  0  0  0  0  0  0  0
  -16.0155   -1.4782    0.0000 H   0  0  0  0  0  0  0  0  0  0  0  0
  -17.2401   -1.4782    0.0000 H   0  0  0  0  0  0  0  0  0  0  0  0
  -15.2420    0.8000    0.0000 C   0  0  0  0  0  0  0  0  0  0  0  0
  -15.8544    2.2782    0.0000 H   0  0  0  0  0  0  0  0  0  0  0  0
  -14.6297    2.2782    0.0000 H   0  0  0  0  0  0  0  0  0  0  0  0
  -13.8563    0.0000    0.0000 C   0  0  0  0  0  0  0  0  0  0  0  0
  -13.2440   -1.4782    0.0000 H   0  0  0  0  0  0  0  0  0  0  0  0
  -14.4686   -1.4782    0.0000 H   0  0  0  0  0  0  0  0  0  0  0  0
  -12.4706    0.8000    0.0000 C   0  0  0  0  0  0  0  0  0  0  0  0
  -13.0829    2.2782    0.0000 H   0  0  0  0  0  0  0  0  0  0  0  0
  -11.8587    2.2782    0.0000 H   0  0  0  0  0  0  0  0  0  0  0  0
  -11.0852    0.0000    0.0000 C   0  0  0  0  0  0  0  0  0  0  0  0
  -10.4729   -1.4782    0.0000 H   0  0  0  0  0  0  0  0  0  0  0  0
  -11.6975   -1.4782    0.0000 H   0  0  0  0  0  0  0  0  0  0  0  0
   -9.6995    0.8000    0.0000 C   0  0  0  0  0  0  0  0  0  0  0  0
  -10.3118    2.2782    0.0000 H   0  0  0  0  0  0  0  0  0  0  0  0
   -9.0872    2.2782    0.0000 H   0  0  0  0  0  0  0  0  0  0  0  0
   -8.3137    0.0000    0.0000 C   0  0  0  0  0  0  0  0  0  0  0  0
   -7.7014   -1.4782    0.0000 H   0  0  0  0  0  0  0  0  0  0  0  0
   -8.9261   -1.4782    0.0000 H   0  0  0  0  0  0  0  0  0  0  0  0
   -6.9280    0.8000    0.0000 C   0  0  0  0  0  0  0  0  0  0  0  0
   -6.9280    2.4000    0.0000 H   0  0  0  0  0  0  0  0  0  0  0  0
   -5.5427    0.0000    0.0000 C   0  0  0  0  0  0  0  0  0  0  0  0
   -5.5427   -1.6000    0.0000 H   0  0  0  0  0  0  0  0  0  0  0  0
   -4.1569    0.8000    0.0000 C   0  0  0  0  0  0  0  0  0  0  0  0
   -4.7692    2.2782    0.0000 H   0  0  0  0  0  0  0  0  0  0  0  0
   -3.5446    2.2782    0.0000 H   0  0  0  0  0  0  0  0  0  0  0  0
   -2.7712    0.0000    0.0000 C   0  0  0  0  0  0  0  0  0  0  0  0
   -2.1589   -1.4782    0.0000 H   0  0  0  0  0  0  0  0  0  0  0  0
   -3.3835   -1.4782    0.0000 H   0  0  0  0  0  0  0  0  0  0  0  0
   -1.3854    0.8000    0.0000 C   0  0  0  0  0  0  0  0  0  0  0  0
   -1.9977    2.2782    0.0000 H   0  0  0  0  0  0  0  0  0  0  0  0
   -0.7735    2.2782    0.0000 H   0  0  0  0  0  0  0  0  0  0  0  0
   -0.0001    0.0000    0.0000 C   0  0  0  0  0  0  0  0  0  0  0  0
    0.6122   -1.4782    0.0000 H   0  0  0  0  0  0  0  0  0  0  0  0
   -0.6124   -1.4782    0.0000 H   0  0  0  0  0  0  0  0  0  0  0  0
    1.3856    0.8000    0.0000 C   0  0  0  0  0  0  0  0  0  0  0  0
    0.7733    2.2782    0.0000 H   0  0  0  0  0  0  0  0  0  0  0  0
    1.9980    2.2782    0.0000 H   0  0  0  0  0  0  0  0  0  0  0  0
    2.7714    0.0000    0.0000 C   0  0  0  0  0  0  0  0  0  0  0  0
    3.3837   -1.4782    0.0000 H   0  0  0  0  0  0  0  0  0  0  0  0
    2.1591   -1.4782    0.0000 H   0  0  0  0  0  0  0  0  0  0  0  0
    4.1571    0.8000    0.0000 C   0  0  0  0  0  0  0  0  0  0  0  0
    3.5448    2.2782    0.0000 H   0  0  0  0  0  0  0  0  0  0  0  0
    4.7690    2.2782    0.0000 H   0  0  0  0  0  0  0  0  0  0  0  0
    5.5425    0.0000    0.0000 C   0  0  0  0  0  0  0  0  0  0  0  0
    6.9282   -0.8000    0.0000 H   0  0  0  0  0  0  0  0  0  0  0  0
    6.9282    0.8000    0.0000 H   0  0  0  0  0  0  0  0  0  0  0  0
    5.5425   -1.6000    0.0000 H   0  0  0  0  0  0  0  0  0  0  0  0
  1  2  2  0  0  0  0
  1  3  1  0  0  0  0
  3  4  1  0  0  0  0
  1  5  1  0  0  0  0
  5  6  1  0  0  0  0
  5  7  1  0  0  0  0
  5  8  1  0  0  0  0
  8  9  1  0  0  0  0
  8 10  1  0  0  0  0
  8 11  1  0  0  0  0
 11 12  1  0  0  0  0
 11 13  1  0  0  0  0
 11 14  1  0  0  0  0
 14 15  1  0  0  0  0
 14 16  1  0  0  0  0
 14 17  1  0  0  0  0
 17 18  1  0  0  0  0
 17 19  1  0  0  0  0
 17 20  1  0  0  0  0
 20 21  1  0  0  0  0
 20 22  1  0  0  0  0
 20 23  1  0  0  0  0
 23 24  1  0  0  0  0
 23 25  1  0  0  0  0
 23 26  1  0  0  0  0
 26 27  1  0  0  0  0
 26 28  2  0  0  0  0
 28 29  1  0  0  0  0
 28 30  1  0  0  0  0
 30 31  1  0  0  0  0
 30 32  1  0  0  0  0
 30 33  1  0  0  0  0
 33 34  1  0  0  0  0
 33 35  1  0  0  0  0
 33 36  1  0  0  0  0
 36 37  1  0  0  0  0
 36 38  1  0  0  0  0
 36 39  1  0  0  0  0
 39 40  1  0  0  0  0
 39 41  1  0  0  0  0
 39 42  1  0  0  0  0
 42 43  1  0  0  0  0
 42 44  1  0  0  0  0
 42 45  1  0  0  0  0
 45 46  1  0  0  0  0
 45 47  1  0  0  0  0
 45 48  1  0  0  0  0
 48 49  1  0  0  0  0
 48 50  1  0  0  0  0
 48 51  1  0  0  0  0
 51 52  1  0  0  0  0
 51 53  1  0  0  0  0
 51 54  1  0  0  0  0
M  END
> <ChemID>
100558

> <source_casrn>
112-80-1

> <CAS>
112-80-1

> <SMILES>
CCCCCCCC/C=C\CCCCCCCC(O)=O

> <NAME>
OLEIC ACID

> <preferred_name>
Oleic acid

> <iupac>
C18H34O2

> <MPID>
100568

> <dsstox_substance_id>
DTXSID1025809

> <Canonical_QSARr>
CCCCCCCCC=CCCCCCCCC(O)=O

> <InChI_Code_QSARr>
InChI=1S/C18H34O2/c1-2-3-4-5-6-7-8-9-10-11-12-13-14-15-16-17-18(19)20/h9-10H,2-8,11-17H2,1H3,(H,19,20)/b10-9+

> <InChI Key_QSARr>
ZQPPMHVWECSIRJ-MDZDMXLPSA-N

> <Salt_Solvent>
?

> <Ready_Biodeg>
1.0

$$$$
100562
  -INDIGO-08031722522D

 58 57  0  0  0  0  0  0  0  0999 V2000
   -9.6996   -0.8000    0.0000 C   0  0  0  0  0  0  0  0  0  0  0  0
   -9.0873   -2.2782    0.0000 H   0  0  0  0  0  0  0  0  0  0  0  0
  -10.3118   -2.2782    0.0000 H   0  0  0  0  0  0  0  0  0  0  0  0
   -8.3138    0.0000    0.0000 C   0  0  0  0  0  0  0  0  0  0  0  0
   -8.9261    1.4782    0.0000 H   0  0  0  0  0  0  0  0  0  0  0  0
   -7.7015    1.4782    0.0000 H   0  0  0  0  0  0  0  0  0  0  0  0
   -6.9280   -0.8000    0.0000 C   0  0  0  0  0  0  0  0  0  0  0  0
   -6.3157   -2.2782    0.0000 H   0  0  0  0  0  0  0  0  0  0  0  0
   -7.5403   -2.2782    0.0000 H   0  0  0  0  0  0  0  0  0  0  0  0
   -5.5427    0.0000    0.0000 C   0  0  0  0  0  0  0  0  0  0  0  0
   -6.1550    1.4782    0.0000 H   0  0  0  0  0  0  0  0  0  0  0  0
   -4.9304    1.4782    0.0000 H   0  0  0  0  0  0  0  0  0  0  0  0
   -4.1569   -0.8000    0.0000 C   0  0  0  0  0  0  0  0  0  0  0  0
   -3.5446   -2.2782    0.0000 H   0  0  0  0  0  0  0  0  0  0  0  0
   -4.7692   -2.2782    0.0000 H   0  0  0  0  0  0  0  0  0  0  0  0
   -2.7712    0.0000    0.0000 C   0  0  0  0  0  0  0  0  0  0  0  0
   -3.3835    1.4782    0.0000 H   0  0  0  0  0  0  0  0  0  0  0  0
   -2.1589    1.4782    0.0000 H   0  0  0  0  0  0  0  0  0  0  0  0
   -1.3858   -0.8000    0.0000 C   0  0  0  0  0  0  0  0  0  0  0  0
   -0.7735   -2.2782    0.0000 H   0  0  0  0  0  0  0  0  0  0  0  0
   -1.9981   -2.2782    0.0000 H   0  0  0  0  0  0  0  0  0  0  0  0
   -0.0001    0.0000    0.0000 C   0  0  0  0  0  0  0  0  0  0  0  0
   -0.6124    1.4782    0.0000 H   0  0  0  0  0  0  0  0  0  0  0  0
    0.6122    1.4782    0.0000 H   0  0  0  0  0  0  0  0  0  0  0  0
    1.3857   -0.8000    0.0000 C   0  0  0  0  0  0  0  0  0  0  0  0
    1.9980   -2.2782    0.0000 H   0  0  0  0  0  0  0  0  0  0  0  0
    0.7734   -2.2782    0.0000 H   0  0  0  0  0  0  0  0  0  0  0  0
    2.7715    0.0000    0.0000 C   0  0  0  0  0  0  0  0  0  0  0  0
    2.1592    1.4782    0.0000 H   0  0  0  0  0  0  0  0  0  0  0  0
    3.3838    1.4782    0.0000 H   0  0  0  0  0  0  0  0  0  0  0  0
    4.1568   -0.8000    0.0000 C   0  0  0  0  0  0  0  0  0  0  0  0
    4.7691   -2.2782    0.0000 H   0  0  0  0  0  0  0  0  0  0  0  0
    3.5445   -2.2782    0.0000 H   0  0  0  0  0  0  0  0  0  0  0  0
    5.5426    0.0000    0.0000 C   0  0  0  0  0  0  0  0  0  0  0  0
    4.9303    1.4782    0.0000 H   0  0  0  0  0  0  0  0  0  0  0  0
    6.1549    1.4782    0.0000 H   0  0  0  0  0  0  0  0  0  0  0  0
    6.9283   -0.8000    0.0000 C   0  0  0  0  0  0  0  0  0  0  0  0
    7.5406   -2.2782    0.0000 H   0  0  0  0  0  0  0  0  0  0  0  0
    6.3160   -2.2782    0.0000 H   0  0  0  0  0  0  0  0  0  0  0  0
    8.3137    0.0000    0.0000 C   0  0  0  0  0  0  0  0  0  0  0  0
    7.7014    1.4782    0.0000 H   0  0  0  0  0  0  0  0  0  0  0  0
    8.9259    1.4782    0.0000 H   0  0  0  0  0  0  0  0  0  0  0  0
    9.6994   -0.8000    0.0000 C   0  0  0  0  0  0  0  0  0  0  0  0
   10.3117   -2.2782    0.0000 H   0  0  0  0  0  0  0  0  0  0  0  0
    9.0871   -2.2782    0.0000 H   0  0  0  0  0  0  0  0  0  0  0  0
   11.0852    0.0000    0.0000 C   0  0  0  0  0  0  0  0  0  0  0  0
   10.4729    1.4782    0.0000 H   0  0  0  0  0  0  0  0  0  0  0  0
   11.6975    1.4782    0.0000 H   0  0  0  0  0  0  0  0  0  0  0  0
   12.4710   -0.8000    0.0000 C   0  0  0  0  0  0  0  0  0  0  0  0
   13.0833   -2.2782    0.0000 H   0  0  0  0  0  0  0  0  0  0  0  0
   11.8587   -2.2782    0.0000 H   0  0  0  0  0  0  0  0  0  0  0  0
   13.8563    0.0000    0.0000 C   0  0  0  0  0  0  0  0  0  0  0  0
   15.2420    0.8000    0.0000 H   0  0  0  0  0  0  0  0  0  0  0  0
   15.2420   -0.8000    0.0000 H   0  0  0  0  0  0  0  0  0  0  0  0
   13.8563    1.6000    0.0000 H   0  0  0  0  0  0  0  0  0  0  0  0
  -11.0853    0.0000    0.0000 N   0  0  0  0  0  0  0  0  0  0  0  0
  -12.4706   -0.8000    0.0000 C   0  0  0  0  0  0  0  0  0  0  0  0
  -13.8564   -1.6000    0.0000 O   0  0  0  0  0  0  0  0  0  0  0  0
  1  2  1  0  0  0  0
  1  3  1  0  0  0  0
  1  4  1  0  0  0  0
  4  5  1  0  0  0  0
  4  6  1  0  0  0  0
  4  7  1  0  0  0  0
  7  8  1  0  0  0  0
  7  9  1  0  0  0  0
  7 10  1  0  0  0  0
 10 11  1  0  0  0  0
 10 12  1  0  0  0  0
 10 13  1  0  0  0  0
 13 14  1  0  0  0  0
 13 15  1  0  0  0  0
 13 16  1  0  0  0  0
 16 17  1  0  0  0  0
 16 18  1  0  0  0  0
 16 19  1  0  0  0  0
 19 20  1  0  0  0  0
 19 21  1  0  0  0  0
 19 22  1  0  0  0  0
 22 23  1  0  0  0  0
 22 24  1  0  0  0  0
 22 25  1  0  0  0  0
 25 26  1  0  0  0  0
 25 27  1  0  0  0  0
 25 28  1  0  0  0  0
 28 29  1  0  0  0  0
 28 30  1  0  0  0  0
 28 31  1  0  0  0  0
 31 32  1  0  0  0  0
 31 33  1  0  0  0  0
 31 34  1  0  0  0  0
 34 35  1  0  0  0  0
 34 36  1  0  0  0  0
 34 37  1  0  0  0  0
 37 38  1  0  0  0  0
 37 39  1  0  0  0  0
 37 40  1  0  0  0  0
 40 41  1  0  0  0  0
 40 42  1  0  0  0  0
 40 43  1  0  0  0  0
 43 44  1  0  0  0  0
 43 45  1  0  0  0  0
 43 46  1  0  0  0  0
 46 47  1  0  0  0  0
 46 48  1  0  0  0  0
 46 49  1  0  0  0  0
 49 50  1  0  0  0  0
 49 51  1  0  0  0  0
 49 52  1  0  0  0  0
 52 53  1  0  0  0  0
 52 54  1  0  0  0  0
 52 55  1  0  0  0  0
  1 56  1  0  0  0  0
 56 57  2  0  0  0  0
 57 58  2  0  0  0  0
M  END
> <ChemID>
100562

> <source_casrn>
112-96-9

> <CAS>
112-96-9

> <SMILES>
CCCCCCCCCCCCCCCCCCN=C=O

> <NAME>
Octadecane, 1-isocyanato-

> <preferred_name>
Octadecyl isocyanate

> <iupac>
1-isocyanatooctadecane

> <MPID>
100572

> <dsstox_substance_id>
DTXSID3038727

> <Canonical_QSARr>
CCCCCCCCCCCCCCCCCCN=C=O

> <InChI_Code_QSARr>
InChI=1S/C19H37NO/c1-2-3-4-5-6-7-8-9-10-11-12-13-14-15-16-17-18-20-19-21/h2-18H2,1H3

> <InChI Key_QSARr>
QWDQYHPOSSHSAW-UHFFFAOYSA-N

> <Salt_Solvent>
?

> <Ready_Biodeg>
0.0

$$$$
100566
  -INDIGO-08031722522D

 29 30  0  0  0  0  0  0  0  0999 V2000
    0.5473   -1.5035    0.0000 O   0  0  0  0  0  0  0  0  0  0  0  0
    1.0655   -2.0024    0.0000 H   0  0  0  0  0  0  0  0  0  0  0  0
    0.0000    0.0000    0.0000 C   0  0  0  0  0  0  0  0  0  0  0  0
   -1.5036   -0.5472    0.0000 C   0  0  0  0  0  0  0  0  0  0  0  0
   -1.7813   -2.1230    0.0000 C   0  0  0  0  0  0  0  0  0  0  0  0
   -0.5556   -3.1514    0.0000 H   0  0  0  0  0  0  0  0  0  0  0  0
   -3.2848   -2.6702    0.0000 C   0  0  0  0  0  0  0  0  0  0  0  0
   -3.5627   -4.2458    0.0000 H   0  0  0  0  0  0  0  0  0  0  0  0
   -4.5105   -1.6417    0.0000 C   0  0  0  0  0  0  0  0  0  0  0  0
   -6.0140   -2.1889    0.0000 Cl  0  0  0  0  0  0  0  0  0  0  0  0
   -4.2328   -0.0660    0.0000 C   0  0  0  0  0  0  0  0  0  0  0  0
   -5.4584    0.9624    0.0000 H   0  0  0  0  0  0  0  0  0  0  0  0
   -2.7292    0.4812    0.0000 C   0  0  0  0  0  0  0  0  0  0  0  0
   -2.4513    2.0569    0.0000 H   0  0  0  0  0  0  0  0  0  0  0  0
    1.5758    0.2778    0.0000 C   0  0  0  0  0  0  0  0  0  0  0  0
    2.3757    1.6635    0.0000 C   0  0  0  0  0  0  0  0  0  0  0  0
    1.5758    3.0491    0.0000 H   0  0  0  0  0  0  0  0  0  0  0  0
    3.9756    1.6635    0.0000 C   0  0  0  0  0  0  0  0  0  0  0  0
    4.7757    3.0491    0.0000 H   0  0  0  0  0  0  0  0  0  0  0  0
    4.7757    0.2778    0.0000 C   0  0  0  0  0  0  0  0  0  0  0  0
    6.3757    0.2778    0.0000 Cl  0  0  0  0  0  0  0  0  0  0  0  0
    3.9756   -1.1078    0.0000 C   0  0  0  0  0  0  0  0  0  0  0  0
    4.7757   -2.4934    0.0000 H   0  0  0  0  0  0  0  0  0  0  0  0
    2.3757   -1.1078    0.0000 C   0  0  0  0  0  0  0  0  0  0  0  0
    2.1229   -1.7814    0.0000 H   0  0  0  0  0  0  0  0  0  0  0  0
   -0.5473    1.5035    0.0000 C   0  0  0  0  0  0  0  0  0  0  0  0
   -1.0944    3.0070    0.0000 Cl  0  0  0  0  0  0  0  0  0  0  0  0
    0.4811    2.7292    0.0000 Cl  0  0  0  0  0  0  0  0  0  0  0  0
    1.0285    1.2257    0.0000 Cl  0  0  0  0  0  0  0  0  0  0  0  0
  1  2  1  0  0  0  0
  1  3  1  0  0  0  0
  3  4  1  0  0  0  0
  4  5  1  0  0  0  0
  5  6  1  0  0  0  0
  5  7  2  0  0  0  0
  7  8  1  0  0  0  0
  7  9  1  0  0  0  0
  9 10  1  0  0  0  0
  9 11  2  0  0  0  0
 11 12  1  0  0  0  0
 11 13  1  0  0  0  0
 13  4  2  0  0  0  0
 13 14  1  0  0  0  0
  3 15  1  0  0  0  0
 15 16  1  0  0  0  0
 16 17  1  0  0  0  0
 16 18  2  0  0  0  0
 18 19  1  0  0  0  0
 18 20  1  0  0  0  0
 20 21  1  0  0  0  0
 20 22  2  0  0  0  0
 22 23  1  0  0  0  0
 22 24  1  0  0  0  0
 24 15  2  0  0  0  0
 24 25  1  0  0  0  0
  3 26  1  0  0  0  0
 26 27  1  0  0  0  0
 26 28  1  0  0  0  0
 26 29  1  0  0  0  0
M  END
> <ChemID>
100566

> <source_casrn>
115-32-2

> <CAS>
115-32-2

> <SMILES>
OC(c1ccc(Cl)cc1)(c1ccc(Cl)cc1)C(Cl)(Cl)Cl

> <NAME>
Dicofol

> <preferred_name>
Dicofol

> <iupac>
2,2,2-trichloro-1,1-bis(4-chlorophenyl)ethanol

> <MPID>
100576

> <dsstox_substance_id>
DTXSID4020450

> <Canonical_QSARr>
OC(c1ccc(Cl)cc1)(c1ccc(Cl)cc1)C(Cl)(Cl)Cl

> <InChI_Code_QSARr>
InChI=1S/C14H9Cl5O/c15-11-5-1-9(2-6-11)13(20,14(17,18)19)10-3-7-12(16)8-4-10/h1-8,20H

> <InChI Key_QSARr>
UOAMTSKGCBMZTC-UHFFFAOYSA-N

> <Salt_Solvent>
?

> <Ready_Biodeg>
0.0

$$$$
100570
  -INDIGO-08031722522D

 11 10  0  0  0  0  0  0  0  0999 V2000
   -1.3856    2.4000    0.0000 O   0  0  0  0  0  0  0  0  0  0  0  0
   -1.3856    0.8000    0.0000 C   0  0  0  0  0  0  0  0  0  0  0  0
    0.0000    0.0000    0.0000 C   0  0  0  0  0  0  0  0  0  0  0  0
   -0.6123   -1.4782    0.0000 H   0  0  0  0  0  0  0  0  0  0  0  0
    0.6123   -1.4782    0.0000 H   0  0  0  0  0  0  0  0  0  0  0  0
    1.3856    0.8000    0.0000 O   0  0  0  0  0  0  0  0  0  0  0  0
    2.7713    0.0000    0.0000 H   0  0  0  0  0  0  0  0  0  0  0  0
   -2.7713    0.0000    0.0000 C   0  0  0  0  0  0  0  0  0  0  0  0
   -4.1569   -0.8000    0.0000 H   0  0  0  0  0  0  0  0  0  0  0  0
   -4.1569    0.8000    0.0000 H   0  0  0  0  0  0  0  0  0  0  0  0
   -2.7713   -1.6000    0.0000 H   0  0  0  0  0  0  0  0  0  0  0  0
  1  2  2  0  0  0  0
  2  3  1  0  0  0  0
  3  4  1  0  0  0  0
  3  5  1  0  0  0  0
  3  6  1  0  0  0  0
  6  7  1  0  0  0  0
  2  8  1  0  0  0  0
  8  9  1  0  0  0  0
  8 10  1  0  0  0  0
  8 11  1  0  0  0  0
M  END
> <ChemID>
100570

> <source_casrn>
116-09-6

> <CAS>
116-09-6

> <SMILES>
CC(=O)CO

> <NAME>
2-Propanone, 1-hydroxy-

> <preferred_name>
Hydroxyacetone

> <iupac>
1-hydroxyacetone

> <MPID>
100580

> <dsstox_substance_id>
DTXSID8051590

> <Canonical_QSARr>
CC(=O)CO

> <InChI_Code_QSARr>
InChI=1S/C3H6O2/c1-3(5)2-4/h4H,2H2,1H3

> <InChI Key_QSARr>
XLSMFKSTNGKWQX-UHFFFAOYSA-N

> <Salt_Solvent>
?

> <Ready_Biodeg>
1.0

$$$$
100574
  -INDIGO-08031722522D

 66 66  0  0  0  0  0  0  0  0999 V2000
    4.8000    0.0000    0.0000 O   0  0  0  0  0  0  0  0  0  0  0  0
    3.9999   -1.3856    0.0000 C   0  0  0  0  0  0  0  0  0  0  0  0
    4.8000   -2.7713    0.0000 C   0  0  0  0  0  0  0  0  0  0  0  0
    6.4000   -2.7713    0.0000 C   0  0  0  0  0  0  0  0  0  0  0  0
    7.2001   -1.3856    0.0000 C   0  0  0  0  0  0  0  0  0  0  0  0
    6.4000    0.0000    0.0000 O   0  0  0  0  0  0  0  0  0  0  0  0
    8.8001   -1.3856    0.0000 O   0  0  0  0  0  0  0  0  0  0  0  0
    9.5999    0.0000    0.0000 C   0  0  0  0  0  0  0  0  0  0  0  0
    9.3911    1.5864    0.0000 H   0  0  0  0  0  0  0  0  0  0  0  0
    8.3307    0.9740    0.0000 H   0  0  0  0  0  0  0  0  0  0  0  0
   11.1998    0.0000    0.0000 C   0  0  0  0  0  0  0  0  0  0  0  0
   10.9220   -1.5756    0.0000 H   0  0  0  0  0  0  0  0  0  0  0  0
   12.7036   -0.5473    0.0000 C   0  0  0  0  0  0  0  0  0  0  0  0
   11.8438   -1.8967    0.0000 H   0  0  0  0  0  0  0  0  0  0  0  0
   13.0497   -2.1094    0.0000 H   0  0  0  0  0  0  0  0  0  0  0  0
   14.2792   -0.2695    0.0000 C   0  0  0  0  0  0  0  0  0  0  0  0
   15.3600    0.9102    0.0000 H   0  0  0  0  0  0  0  0  0  0  0  0
   14.2094    1.3291    0.0000 H   0  0  0  0  0  0  0  0  0  0  0  0
   15.3078   -1.4951    0.0000 C   0  0  0  0  0  0  0  0  0  0  0  0
   14.2267   -2.6747    0.0000 H   0  0  0  0  0  0  0  0  0  0  0  0
   15.3773   -3.0935    0.0000 H   0  0  0  0  0  0  0  0  0  0  0  0
   16.8834   -1.2173    0.0000 C   0  0  0  0  0  0  0  0  0  0  0  0
   18.4590   -0.9393    0.0000 H   0  0  0  0  0  0  0  0  0  0  0  0
   17.9120   -2.4429    0.0000 H   0  0  0  0  0  0  0  0  0  0  0  0
   17.4305    0.2863    0.0000 H   0  0  0  0  0  0  0  0  0  0  0  0
   11.4777    1.5757    0.0000 C   0  0  0  0  0  0  0  0  0  0  0  0
   13.0764    1.5058    0.0000 H   0  0  0  0  0  0  0  0  0  0  0  0
   12.6573    2.6566    0.0000 H   0  0  0  0  0  0  0  0  0  0  0  0
   10.2521    2.6042    0.0000 C   0  0  0  0  0  0  0  0  0  0  0  0
   10.5299    4.1798    0.0000 H   0  0  0  0  0  0  0  0  0  0  0  0
    9.0265    3.6325    0.0000 H   0  0  0  0  0  0  0  0  0  0  0  0
   11.7555    3.1513    0.0000 H   0  0  0  0  0  0  0  0  0  0  0  0
    7.2001   -4.1569    0.0000 C   0  0  0  0  0  0  0  0  0  0  0  0
    8.8001   -4.1569    0.0000 H   0  0  0  0  0  0  0  0  0  0  0  0
    6.4000   -5.5426    0.0000 C   0  0  0  0  0  0  0  0  0  0  0  0
    7.2001   -6.9282    0.0000 H   0  0  0  0  0  0  0  0  0  0  0  0
    4.8000   -5.5426    0.0000 C   0  0  0  0  0  0  0  0  0  0  0  0
    3.9999   -6.9282    0.0000 H   0  0  0  0  0  0  0  0  0  0  0  0
    3.9999   -4.1569    0.0000 C   0  0  0  0  0  0  0  0  0  0  0  0
    2.3999   -4.1569    0.0000 H   0  0  0  0  0  0  0  0  0  0  0  0
    2.3999   -1.3856    0.0000 O   0  0  0  0  0  0  0  0  0  0  0  0
    1.6001    0.0000    0.0000 C   0  0  0  0  0  0  0  0  0  0  0  0
    2.8693    0.9740    0.0000 H   0  0  0  0  0  0  0  0  0  0  0  0
    1.8089    1.5864    0.0000 H   0  0  0  0  0  0  0  0  0  0  0  0
    0.0002    0.0000    0.0000 C   0  0  0  0  0  0  0  0  0  0  0  0
    0.2780   -1.5756    0.0000 H   0  0  0  0  0  0  0  0  0  0  0  0
   -1.5036   -0.5473    0.0000 C   0  0  0  0  0  0  0  0  0  0  0  0
   -1.8497   -2.1094    0.0000 H   0  0  0  0  0  0  0  0  0  0  0  0
   -0.6438   -1.8967    0.0000 H   0  0  0  0  0  0  0  0  0  0  0  0
   -3.0792   -0.2695    0.0000 C   0  0  0  0  0  0  0  0  0  0  0  0
   -3.0094    1.3291    0.0000 H   0  0  0  0  0  0  0  0  0  0  0  0
   -4.1600    0.9102    0.0000 H   0  0  0  0  0  0  0  0  0  0  0  0
   -4.1078   -1.4951    0.0000 C   0  0  0  0  0  0  0  0  0  0  0  0
   -4.1773   -3.0935    0.0000 H   0  0  0  0  0  0  0  0  0  0  0  0
   -3.0267   -2.6747    0.0000 H   0  0  0  0  0  0  0  0  0  0  0  0
   -5.6834   -1.2173    0.0000 C   0  0  0  0  0  0  0  0  0  0  0  0
   -7.2590   -0.9393    0.0000 H   0  0  0  0  0  0  0  0  0  0  0  0
   -6.7120   -2.4429    0.0000 H   0  0  0  0  0  0  0  0  0  0  0  0
   -6.2305    0.2863    0.0000 H   0  0  0  0  0  0  0  0  0  0  0  0
   -0.2777    1.5757    0.0000 C   0  0  0  0  0  0  0  0  0  0  0  0
   -1.4573    2.6566    0.0000 H   0  0  0  0  0  0  0  0  0  0  0  0
   -1.8764    1.5058    0.0000 H   0  0  0  0  0  0  0  0  0  0  0  0
    0.9479    2.6042    0.0000 C   0  0  0  0  0  0  0  0  0  0  0  0
    0.6701    4.1798    0.0000 H   0  0  0  0  0  0  0  0  0  0  0  0
    2.1735    3.6325    0.0000 H   0  0  0  0  0  0  0  0  0  0  0  0
   -0.5555    3.1513    0.0000 H   0  0  0  0  0  0  0  0  0  0  0  0
  1  2  2  0  0  0  0
  2  3  1  0  0  0  0
  3  4  1  0  0  0  0
  4  5  1  0  0  0  0
  5  6  2  0  0  0  0
  5  7  1  0  0  0  0
  7  8  1  0  0  0  0
  8  9  1  0  0  0  0
  8 10  1  0  0  0  0
  8 11  1  0  0  0  0
 11 12  1  0  0  0  0
 11 13  1  0  0  0  0
 13 14  1  0  0  0  0
 13 15  1  0  0  0  0
 13 16  1  0  0  0  0
 16 17  1  0  0  0  0
 16 18  1  0  0  0  0
 16 19  1  0  0  0  0
 19 20  1  0  0  0  0
 19 21  1  0  0  0  0
 19 22  1  0  0  0  0
 22 23  1  0  0  0  0
 22 24  1  0  0  0  0
 22 25  1  0  0  0  0
 11 26  1  0  0  0  0
 26 27  1  0  0  0  0
 26 28  1  0  0  0  0
 26 29  1  0  0  0  0
 29 30  1  0  0  0  0
 29 31  1  0  0  0  0
 29 32  1  0  0  0  0
  4 33  2  0  0  0  0
 33 34  1  0  0  0  0
 33 35  1  0  0  0  0
 35 36  1  0  0  0  0
 35 37  2  0  0  0  0
 37 38  1  0  0  0  0
 37 39  1  0  0  0  0
 39  3  2  0  0  0  0
 39 40  1  0  0  0  0
  2 41  1  0  0  0  0
 41 42  1  0  0  0  0
 42 43  1  0  0  0  0
 42 44  1  0  0  0  0
 42 45  1  0  0  0  0
 45 46  1  0  0  0  0
 45 47  1  0  0  0  0
 47 48  1  0  0  0  0
 47 49  1  0  0  0  0
 47 50  1  0  0  0  0
 50 51  1  0  0  0  0
 50 52  1  0  0  0  0
 50 53  1  0  0  0  0
 53 54  1  0  0  0  0
 53 55  1  0  0  0  0
 53 56  1  0  0  0  0
 56 57  1  0  0  0  0
 56 58  1  0  0  0  0
 56 59  1  0  0  0  0
 45 60  1  0  0  0  0
 60 61  1  0  0  0  0
 60 62  1  0  0  0  0
 60 63  1  0  0  0  0
 63 64  1  0  0  0  0
 63 65  1  0  0  0  0
 63 66  1  0  0  0  0
M  END
> <ChemID>
100574

> <source_casrn>
117-81-7

> <CAS>
117-81-7

> <SMILES>
O=C(OCC(CCCC)CC)c(c(ccc1)C(=O)OCC(CCCC)CC)c1

> <NAME>
Bis(2-ethylhexyl)phthalate

> <preferred_name>
Di(2-ethylhexyl) phthalate

> <iupac>
bis(2-ethylhexyl) benzene-1,2-dicarboxylate

> <MPID>
100584

> <dsstox_substance_id>
DTXSID5020607

> <Canonical_QSARr>
CCCCC(COC(=O)c1ccccc1C(=O)OCC(CCCC)CC)CC

> <InChI_Code_QSARr>
InChI=1S/C24H38O4/c1-5-9-13-19(7-3)17-27-23(25)21-15-11-12-16-22(21)24(26)28-18-20(8-4)14-10-6-2/h11-12,15-16,19-20H,5-10,13-14,17-18H2,1-4H3

> <InChI Key_QSARr>
BJQHLKABXJIVAM-UHFFFAOYSA-N

> <Salt_Solvent>
?

> <Ready_Biodeg>
0.0

$$$$
100578
  -INDIGO-08031722522D

 12 12  0  0  0  0  0  0  0  0999 V2000
    0.8000    1.3856    0.0000 Cl  0  0  0  0  0  0  0  0  0  0  0  0
   -0.0000   -0.0000    0.0000 C   0  0  0  0  0  0  0  0  0  0  0  0
    0.8000   -1.3857    0.0000 C   0  0  0  0  0  0  0  0  0  0  0  0
    2.4000   -1.3857    0.0000 Cl  0  0  0  0  0  0  0  0  0  0  0  0
   -0.0000   -2.7713    0.0000 C   0  0  0  0  0  0  0  0  0  0  0  0
    0.8000   -4.1569    0.0000 Cl  0  0  0  0  0  0  0  0  0  0  0  0
   -1.6000   -2.7713    0.0000 C   0  0  0  0  0  0  0  0  0  0  0  0
   -2.4000   -4.1569    0.0000 Cl  0  0  0  0  0  0  0  0  0  0  0  0
   -2.4000   -1.3856    0.0000 C   0  0  0  0  0  0  0  0  0  0  0  0
   -4.0000   -1.3856    0.0000 Cl  0  0  0  0  0  0  0  0  0  0  0  0
   -1.6000   -0.0000    0.0000 C   0  0  0  0  0  0  0  0  0  0  0  0
   -2.4000    1.3856    0.0000 Cl  0  0  0  0  0  0  0  0  0  0  0  0
  1  2  1  0  0  0  0
  2  3  1  0  0  0  0
  3  4  1  0  0  0  0
  3  5  2  0  0  0  0
  5  6  1  0  0  0  0
  5  7  1  0  0  0  0
  7  8  1  0  0  0  0
  7  9  2  0  0  0  0
  9 10  1  0  0  0  0
  9 11  1  0  0  0  0
 11  2  2  0  0  0  0
 11 12  1  0  0  0  0
M  END
> <ChemID>
100578

> <source_casrn>
118-74-1

> <CAS>
118-74-1

> <SMILES>
Clc1c(Cl)c(Cl)c(Cl)c(Cl)c1Cl

> <NAME>
Benzene, hexachloro-

> <preferred_name>
Hexachlorobenzene

> <iupac>
hexachlorobenzene

> <MPID>
100588

> <dsstox_substance_id>
DTXSID2020682

> <Canonical_QSARr>
Clc1c(Cl)c(Cl)c(Cl)c(Cl)c1Cl

> <InChI_Code_QSARr>
InChI=1S/C6Cl6/c7-1-2(8)4(10)6(12)5(11)3(1)9

> <InChI Key_QSARr>
CKAPSXZOOQJIBF-UHFFFAOYSA-N

> <Salt_Solvent>
?

> <Ready_Biodeg>
0.0

$$$$
100582
  -INDIGO-08031722522D

 18 18  0  0  0  0  0  0  0  0999 V2000
    3.2001    0.0000    0.0000 O   0  0  0  0  0  0  0  0  0  0  0  0
    2.4000   -1.3856    0.0000 C   0  0  0  0  0  0  0  0  0  0  0  0
    3.2001   -2.7713    0.0000 O   0  0  0  0  0  0  0  0  0  0  0  0
    4.8000   -2.7713    0.0000 H   0  0  0  0  0  0  0  0  0  0  0  0
    0.8000   -1.3856    0.0000 C   0  0  0  0  0  0  0  0  0  0  0  0
    0.0000    0.0000    0.0000 C   0  0  0  0  0  0  0  0  0  0  0  0
    0.8000    1.3856    0.0000 C   0  0  0  0  0  0  0  0  0  0  0  0
    1.6000    2.7713    0.0000 H   0  0  0  0  0  0  0  0  0  0  0  0
    0.0000    2.7713    0.0000 H   0  0  0  0  0  0  0  0  0  0  0  0
    2.4000    1.3856    0.0000 H   0  0  0  0  0  0  0  0  0  0  0  0
   -1.6000    0.0000    0.0000 C   0  0  0  0  0  0  0  0  0  0  0  0
   -2.4001    1.3856    0.0000 H   0  0  0  0  0  0  0  0  0  0  0  0
   -2.4001   -1.3856    0.0000 C   0  0  0  0  0  0  0  0  0  0  0  0
   -4.0000   -1.3856    0.0000 H   0  0  0  0  0  0  0  0  0  0  0  0
   -1.6000   -2.7713    0.0000 C   0  0  0  0  0  0  0  0  0  0  0  0
   -2.4001   -4.1569    0.0000 H   0  0  0  0  0  0  0  0  0  0  0  0
    0.0000   -2.7713    0.0000 C   0  0  0  0  0  0  0  0  0  0  0  0
    0.8000   -4.1569    0.0000 H   0  0  0  0  0  0  0  0  0  0  0  0
  1  2  2  0  0  0  0
  2  3  1  0  0  0  0
  3  4  1  0  0  0  0
  2  5  1  0  0  0  0
  5  6  1  0  0  0  0
  6  7  1  0  0  0  0
  7  8  1  0  0  0  0
  7  9  1  0  0  0  0
  7 10  1  0  0  0  0
  6 11  2  0  0  0  0
 11 12  1  0  0  0  0
 11 13  1  0  0  0  0
 13 14  1  0  0  0  0
 13 15  2  0  0  0  0
 15 16  1  0  0  0  0
 15 17  1  0  0  0  0
 17  5  2  0  0  0  0
 17 18  1  0  0  0  0
M  END
> <ChemID>
100582

> <source_casrn>
118-90-1

> <CAS>
118-90-1

> <SMILES>
Cc1ccccc1C(O)=O

> <NAME>
o-Methylbenzoic acid

> <preferred_name>
2-Methylbenzoic acid

> <iupac>
2-methylbenzoic acid

> <MPID>
100592

> <dsstox_substance_id>
DTXSID6026161

> <Canonical_QSARr>
Cc1ccccc1C(O)=O

> <InChI_Code_QSARr>
InChI=1S/C8H8O2/c1-6-4-2-3-5-7(6)8(9)10/h2-5H,1H3,(H,9,10)

> <InChI Key_QSARr>
ZWLPBLYKEWSWPD-UHFFFAOYSA-N

> <Salt_Solvent>
?

> <Ready_Biodeg>
1.0

$$$$
100586
  -INDIGO-08031722522D

 57 58  0  0  0  0  0  0  0  0999 V2000
   -3.3486    0.7528    0.0000 O   0  0  0  0  0  0  0  0  0  0  0  0
   -2.3201    1.9786    0.0000 H   0  0  0  0  0  0  0  0  0  0  0  0
   -2.8014   -0.7507    0.0000 C   0  0  0  0  0  0  0  0  0  0  0  0
   -3.8297   -1.9763    0.0000 C   0  0  0  0  0  0  0  0  0  0  0  0
   -5.4056   -1.6985    0.0000 C   0  0  0  0  0  0  0  0  0  0  0  0
   -4.7932   -0.2203    0.0000 H   0  0  0  0  0  0  0  0  0  0  0  0
   -6.0177   -0.2203    0.0000 H   0  0  0  0  0  0  0  0  0  0  0  0
   -6.7911   -2.4985    0.0000 C   0  0  0  0  0  0  0  0  0  0  0  0
   -6.7911   -4.0985    0.0000 C   0  0  0  0  0  0  0  0  0  0  0  0
   -5.4056   -4.8985    0.0000 H   0  0  0  0  0  0  0  0  0  0  0  0
   -8.1768   -4.8985    0.0000 C   0  0  0  0  0  0  0  0  0  0  0  0
   -8.1768   -6.4985    0.0000 C   0  0  0  0  0  0  0  0  0  0  0  0
   -8.1768   -8.0985    0.0000 H   0  0  0  0  0  0  0  0  0  0  0  0
   -6.7911   -7.2985    0.0000 H   0  0  0  0  0  0  0  0  0  0  0  0
   -9.5625   -7.2985    0.0000 H   0  0  0  0  0  0  0  0  0  0  0  0
   -9.5625   -4.0985    0.0000 C   0  0  0  0  0  0  0  0  0  0  0  0
  -10.9480   -4.8985    0.0000 H   0  0  0  0  0  0  0  0  0  0  0  0
   -9.5625   -2.4985    0.0000 C   0  0  0  0  0  0  0  0  0  0  0  0
  -10.9480   -1.6985    0.0000 C   0  0  0  0  0  0  0  0  0  0  0  0
  -12.3337   -0.8985    0.0000 C   0  0  0  0  0  0  0  0  0  0  0  0
  -13.7194   -0.0984    0.0000 H   0  0  0  0  0  0  0  0  0  0  0  0
  -13.8372   -1.4457    0.0000 H   0  0  0  0  0  0  0  0  0  0  0  0
  -12.6115    0.6772    0.0000 H   0  0  0  0  0  0  0  0  0  0  0  0
  -11.7480   -3.0841    0.0000 C   0  0  0  0  0  0  0  0  0  0  0  0
  -12.2954   -4.5876    0.0000 H   0  0  0  0  0  0  0  0  0  0  0  0
  -13.3239   -3.3620    0.0000 H   0  0  0  0  0  0  0  0  0  0  0  0
  -12.7765   -1.8585    0.0000 H   0  0  0  0  0  0  0  0  0  0  0  0
  -10.1480   -0.3128    0.0000 C   0  0  0  0  0  0  0  0  0  0  0  0
   -9.1197    0.9129    0.0000 H   0  0  0  0  0  0  0  0  0  0  0  0
  -10.6954    1.1907    0.0000 H   0  0  0  0  0  0  0  0  0  0  0  0
  -11.7239   -0.0349    0.0000 H   0  0  0  0  0  0  0  0  0  0  0  0
   -8.1768   -1.6985    0.0000 C   0  0  0  0  0  0  0  0  0  0  0  0
   -8.1768   -0.0984    0.0000 O   0  0  0  0  0  0  0  0  0  0  0  0
   -6.7911    0.7016    0.0000 H   0  0  0  0  0  0  0  0  0  0  0  0
   -3.2826   -3.4798    0.0000 C   0  0  0  0  0  0  0  0  0  0  0  0
   -4.3111   -4.7055    0.0000 H   0  0  0  0  0  0  0  0  0  0  0  0
   -1.7069   -3.7577    0.0000 C   0  0  0  0  0  0  0  0  0  0  0  0
   -1.1596   -5.2612    0.0000 C   0  0  0  0  0  0  0  0  0  0  0  0
   -0.6124   -6.7646    0.0000 H   0  0  0  0  0  0  0  0  0  0  0  0
    0.4161   -5.5391    0.0000 H   0  0  0  0  0  0  0  0  0  0  0  0
   -2.1881   -6.4867    0.0000 H   0  0  0  0  0  0  0  0  0  0  0  0
   -0.6784   -2.5319    0.0000 C   0  0  0  0  0  0  0  0  0  0  0  0
    0.8972   -2.8098    0.0000 H   0  0  0  0  0  0  0  0  0  0  0  0
   -1.2256   -1.0284    0.0000 C   0  0  0  0  0  0  0  0  0  0  0  0
   -0.0000   -0.0001    0.0000 C   0  0  0  0  0  0  0  0  0  0  0  0
    1.2257    1.0284    0.0000 C   0  0  0  0  0  0  0  0  0  0  0  0
    2.4513    2.0569    0.0000 H   0  0  0  0  0  0  0  0  0  0  0  0
    1.2257    2.6284    0.0000 H   0  0  0  0  0  0  0  0  0  0  0  0
    2.8014    0.7507    0.0000 H   0  0  0  0  0  0  0  0  0  0  0  0
    1.0285   -1.2257    0.0000 C   0  0  0  0  0  0  0  0  0  0  0  0
    2.0570   -2.4513    0.0000 H   0  0  0  0  0  0  0  0  0  0  0  0
    2.6041   -0.9478    0.0000 H   0  0  0  0  0  0  0  0  0  0  0  0
    1.8285    0.1600    0.0000 H   0  0  0  0  0  0  0  0  0  0  0  0
   -1.0285    1.2257    0.0000 C   0  0  0  0  0  0  0  0  0  0  0  0
   -0.4812    2.7292    0.0000 H   0  0  0  0  0  0  0  0  0  0  0  0
    0.4750    1.7729    0.0000 H   0  0  0  0  0  0  0  0  0  0  0  0
   -1.8285   -0.1600    0.0000 H   0  0  0  0  0  0  0  0  0  0  0  0
  1  2  1  0  0  0  0
  1  3  1  0  0  0  0
  3  4  1  0  0  0  0
  4  5  1  0  0  0  0
  5  6  1  0  0  0  0
  5  7  1  0  0  0  0
  5  8  1  0  0  0  0
  8  9  1  0  0  0  0
  9 10  1  0  0  0  0
  9 11  2  0  0  0  0
 11 12  1  0  0  0  0
 12 13  1  0  0  0  0
 12 14  1  0  0  0  0
 12 15  1  0  0  0  0
 11 16  1  0  0  0  0
 16 17  1  0  0  0  0
 16 18  2  0  0  0  0
 18 19  1  0  0  0  0
 19 20  1  0  0  0  0
 20 21  1  0  0  0  0
 20 22  1  0  0  0  0
 20 23  1  0  0  0  0
 19 24  1  0  0  0  0
 24 25  1  0  0  0  0
 24 26  1  0  0  0  0
 24 27  1  0  0  0  0
 19 28  1  0  0  0  0
 28 29  1  0  0  0  0
 28 30  1  0  0  0  0
 28 31  1  0  0  0  0
 18 32  1  0  0  0  0
 32  8  2  0  0  0  0
 32 33  1  0  0  0  0
 33 34  1  0  0  0  0
  4 35  2  0  0  0  0
 35 36  1  0  0  0  0
 35 37  1  0  0  0  0
 37 38  1  0  0  0  0
 38 39  1  0  0  0  0
 38 40  1  0  0  0  0
 38 41  1  0  0  0  0
 37 42  2  0  0  0  0
 42 43  1  0  0  0  0
 42 44  1  0  0  0  0
 44  3  2  0  0  0  0
 44 45  1  0  0  0  0
 45 46  1  0  0  0  0
 46 47  1  0  0  0  0
 46 48  1  0  0  0  0
 46 49  1  0  0  0  0
 45 50  1  0  0  0  0
 50 51  1  0  0  0  0
 50 52  1  0  0  0  0
 50 53  1  0  0  0  0
 45 54  1  0  0  0  0
 54 55  1  0  0  0  0
 54 56  1  0  0  0  0
 54 57  1  0  0  0  0
M  END
> <ChemID>
100586

> <source_casrn>
119-47-1

> <CAS>
119-47-1

> <SMILES>
Oc(c(cc(c1)C)Cc(c(O)c(cc2C)C(C)(C)C)c2)c1C(C)(C)C

> <NAME>
Phenol, 2,2'-methylenebis 6-(1,1-dimethylethyl)-4-methyl-

> <preferred_name>
2,2'-Methylenebis(4-methyl-6-tert-butylphenol)

> <iupac>
2,2'-methanediylbis(6-tert-butyl-4-methylphenol)

> <MPID>
100596

> <dsstox_substance_id>
DTXSID4020870

> <Canonical_QSARr>
CC(C)(C)c1cc(C)cc(Cc2cc(C)cc(c2O)C(C)(C)C)c1O

> <InChI_Code_QSARr>
InChI=1S/C23H32O2/c1-14-9-16(20(24)18(11-14)22(3,4)5)13-17-10-15(2)12-19(21(17)25)23(6,7)8/h9-12,24-25H,13H2,1-8H3

> <InChI Key_QSARr>
KGRVJHAUYBGFFP-UHFFFAOYSA-N

> <Salt_Solvent>
?

> <Ready_Biodeg>
0.0

$$$$
100590
  -INDIGO-08031722522D

 20 20  0  0  0  0  0  0  0  0999 V2000
    1.6000    2.7713    0.0000 O   0  0  0  0  0  0  0  0  0  0  0  0
    2.4000    1.3856    0.0000 C   0  0  0  0  0  0  0  0  0  0  0  0
    4.0000    1.3856    0.0000 O   0  0  0  0  0  0  0  0  0  0  0  0
    4.8000    2.7713    0.0000 H   0  0  0  0  0  0  0  0  0  0  0  0
    1.6000    0.0000    0.0000 C   0  0  0  0  0  0  0  0  0  0  0  0
    0.0000    0.0000    0.0000 C   0  0  0  0  0  0  0  0  0  0  0  0
   -0.8000    1.3856    0.0000 N   0  0  0  0  0  0  0  0  0  0  0  0
    0.0000    2.7713    0.0000 H   0  0  0  0  0  0  0  0  0  0  0  0
   -2.4001    1.3856    0.0000 C   0  0  0  0  0  0  0  0  0  0  0  0
   -4.0000    1.3856    0.0000 H   0  0  0  0  0  0  0  0  0  0  0  0
   -3.2000    2.7713    0.0000 H   0  0  0  0  0  0  0  0  0  0  0  0
   -3.2000    0.0000    0.0000 H   0  0  0  0  0  0  0  0  0  0  0  0
   -0.8000   -1.3856    0.0000 C   0  0  0  0  0  0  0  0  0  0  0  0
   -2.4001   -1.3856    0.0000 H   0  0  0  0  0  0  0  0  0  0  0  0
    0.0000   -2.7713    0.0000 C   0  0  0  0  0  0  0  0  0  0  0  0
   -0.8000   -4.1569    0.0000 H   0  0  0  0  0  0  0  0  0  0  0  0
    1.6000   -2.7713    0.0000 C   0  0  0  0  0  0  0  0  0  0  0  0
    2.4000   -4.1569    0.0000 H   0  0  0  0  0  0  0  0  0  0  0  0
    2.4000   -1.3856    0.0000 C   0  0  0  0  0  0  0  0  0  0  0  0
    4.0000   -1.3856    0.0000 H   0  0  0  0  0  0  0  0  0  0  0  0
  1  2  2  0  0  0  0
  2  3  1  0  0  0  0
  3  4  1  0  0  0  0
  2  5  1  0  0  0  0
  5  6  1  0  0  0  0
  6  7  1  0  0  0  0
  7  8  1  0  0  0  0
  7  9  1  0  0  0  0
  9 10  1  0  0  0  0
  9 11  1  0  0  0  0
  9 12  1  0  0  0  0
  6 13  2  0  0  0  0
 13 14  1  0  0  0  0
 13 15  1  0  0  0  0
 15 16  1  0  0  0  0
 15 17  2  0  0  0  0
 17 18  1  0  0  0  0
 17 19  1  0  0  0  0
 19  5  2  0  0  0  0
 19 20  1  0  0  0  0
M  END
> <ChemID>
100590

> <source_casrn>
119-68-6

> <CAS>
119-68-6

> <SMILES>
CNc1ccccc1C(O)=O

> <NAME>
Benzoic acid, 2-(methylamino)-

> <preferred_name>
Benzoic acid, 2-(methylamino)-

> <iupac>
2-methylaminobenzoic acid

> <MPID>
100600

> <dsstox_substance_id>
DTXSID6059491

> <Canonical_QSARr>
CNc1ccccc1C(O)=O

> <InChI_Code_QSARr>
InChI=1S/C8H9NO2/c1-9-7-5-3-2-4-6(7)8(10)11/h2-5,9H,1H3,(H,10,11)

> <InChI Key_QSARr>
WVMBPWMAQDVZCM-UHFFFAOYSA-N

> <Salt_Solvent>
?

> <Ready_Biodeg>
1.0

$$$$
100595
  -INDIGO-08031722522D

 26 27  0  0  0  0  0  0  0  0999 V2000
    2.7713    1.6000    0.0000 O   0  0  0  0  0  0  0  0  0  0  0  0
    4.1569    2.4000    0.0000 H   0  0  0  0  0  0  0  0  0  0  0  0
    2.7713    0.0000    0.0000 C   0  0  0  0  0  0  0  0  0  0  0  0
    1.3857   -0.8000    0.0000 C   0  0  0  0  0  0  0  0  0  0  0  0
   -0.0001    0.0000    0.0000 C   0  0  0  0  0  0  0  0  0  0  0  0
   -0.3464    1.5621    0.0000 H   0  0  0  0  0  0  0  0  0  0  0  0
    0.8597    1.3494    0.0000 H   0  0  0  0  0  0  0  0  0  0  0  0
   -1.5757   -0.2778    0.0000 C   0  0  0  0  0  0  0  0  0  0  0  0
   -2.1230   -1.7814    0.0000 C   0  0  0  0  0  0  0  0  0  0  0  0
   -1.0945   -3.0071    0.0000 H   0  0  0  0  0  0  0  0  0  0  0  0
   -3.6985   -2.0591    0.0000 C   0  0  0  0  0  0  0  0  0  0  0  0
   -4.2459   -3.5627    0.0000 H   0  0  0  0  0  0  0  0  0  0  0  0
   -4.7270   -0.8335    0.0000 C   0  0  0  0  0  0  0  0  0  0  0  0
   -6.3028   -1.1113    0.0000 H   0  0  0  0  0  0  0  0  0  0  0  0
   -4.1799    0.6700    0.0000 C   0  0  0  0  0  0  0  0  0  0  0  0
   -5.2083    1.8957    0.0000 H   0  0  0  0  0  0  0  0  0  0  0  0
   -2.6041    0.9479    0.0000 C   0  0  0  0  0  0  0  0  0  0  0  0
   -2.0570    2.4513    0.0000 H   0  0  0  0  0  0  0  0  0  0  0  0
    1.3857   -2.4000    0.0000 C   0  0  0  0  0  0  0  0  0  0  0  0
   -0.0001   -3.2000    0.0000 H   0  0  0  0  0  0  0  0  0  0  0  0
    2.7713   -3.2000    0.0000 C   0  0  0  0  0  0  0  0  0  0  0  0
    2.7713   -4.8000    0.0000 Cl  0  0  0  0  0  0  0  0  0  0  0  0
    4.1569   -2.4000    0.0000 C   0  0  0  0  0  0  0  0  0  0  0  0
    5.5426   -3.2000    0.0000 H   0  0  0  0  0  0  0  0  0  0  0  0
    4.1569   -0.8000    0.0000 C   0  0  0  0  0  0  0  0  0  0  0  0
    5.5426    0.0000    0.0000 H   0  0  0  0  0  0  0  0  0  0  0  0
  1  2  1  0  0  0  0
  1  3  1  0  0  0  0
  3  4  1  0  0  0  0
  4  5  1  0  0  0  0
  5  6  1  0  0  0  0
  5  7  1  0  0  0  0
  5  8  1  0  0  0  0
  8  9  1  0  0  0  0
  9 10  1  0  0  0  0
  9 11  2  0  0  0  0
 11 12  1  0  0  0  0
 11 13  1  0  0  0  0
 13 14  1  0  0  0  0
 13 15  2  0  0  0  0
 15 16  1  0  0  0  0
 15 17  1  0  0  0  0
 17  8  2  0  0  0  0
 17 18  1  0  0  0  0
  4 19  2  0  0  0  0
 19 20  1  0  0  0  0
 19 21  1  0  0  0  0
 21 22  1  0  0  0  0
 21 23  2  0  0  0  0
 23 24  1  0  0  0  0
 23 25  1  0  0  0  0
 25  3  2  0  0  0  0
 25 26  1  0  0  0  0
M  END
> <ChemID>
100595

> <source_casrn>
120-32-1

> <CAS>
120-32-1

> <SMILES>
Oc1ccc(Cl)cc1Cc1ccccc1

> <NAME>
5-CHLORO-2-HYDROXYDIPHENYLMETHANE

> <preferred_name>
Clorophene

> <iupac>
C13H11ClO

> <MPID>
100604

> <dsstox_substance_id>
DTXSID5020154

> <Canonical_QSARr>
Oc1ccc(Cl)cc1Cc1ccccc1

> <InChI_Code_QSARr>
InChI=1S/C13H11ClO/c14-12-6-7-13(15)11(9-12)8-10-4-2-1-3-5-10/h1-7,9,15H,8H2

> <InChI Key_QSARr>
NCKMMSIFQUPKCK-UHFFFAOYSA-N

> <Salt_Solvent>
?

> <Ready_Biodeg>
1.0

$$$$
100599
  -INDIGO-08031722522D

 40 42  0  0  0  0  0  0  0  0999 V2000
    5.5427   -0.0000    0.0000 C   0  0  0  0  0  0  0  0  0  0  0  0
    6.9284    0.8000    0.0000 C   0  0  0  0  0  0  0  0  0  0  0  0
    6.9284    2.4000    0.0000 H   0  0  0  0  0  0  0  0  0  0  0  0
    8.3137   -0.0000    0.0000 C   0  0  0  0  0  0  0  0  0  0  0  0
    9.6994    0.8000    0.0000 H   0  0  0  0  0  0  0  0  0  0  0  0
    8.3137   -1.6000    0.0000 C   0  0  0  0  0  0  0  0  0  0  0  0
    9.6994   -2.4000    0.0000 N   0  0  0  0  0  0  0  0  0  0  0  0
   11.0850   -1.6000    0.0000 O   0  0  0  0  0  0  0  0  0  0  0  0
   12.4707   -2.4000    0.0000 C   0  0  0  0  0  0  0  0  0  0  0  0
   12.4707   -4.0000    0.0000 O   0  0  0  0  0  0  0  0  0  0  0  0
   13.8563   -1.6000    0.0000 C   0  0  0  0  0  0  0  0  0  0  0  0
   13.8563   -0.0000    0.0000 C   0  0  0  0  0  0  0  0  0  0  0  0
   12.4707    0.8000    0.0000 H   0  0  0  0  0  0  0  0  0  0  0  0
   15.2420    0.8000    0.0000 C   0  0  0  0  0  0  0  0  0  0  0  0
   15.2420    2.4000    0.0000 H   0  0  0  0  0  0  0  0  0  0  0  0
   16.6277   -0.0000    0.0000 C   0  0  0  0  0  0  0  0  0  0  0  0
   18.0133    0.8000    0.0000 H   0  0  0  0  0  0  0  0  0  0  0  0
   16.6277   -1.6000    0.0000 C   0  0  0  0  0  0  0  0  0  0  0  0
   18.0133   -2.4000    0.0000 H   0  0  0  0  0  0  0  0  0  0  0  0
   15.2420   -2.4000    0.0000 C   0  0  0  0  0  0  0  0  0  0  0  0
   15.2420   -4.0000    0.0000 H   0  0  0  0  0  0  0  0  0  0  0  0
    6.9284   -2.4000    0.0000 C   0  0  0  0  0  0  0  0  0  0  0  0
    6.9284   -4.0000    0.0000 H   0  0  0  0  0  0  0  0  0  0  0  0
    5.5427   -1.6000    0.0000 C   0  0  0  0  0  0  0  0  0  0  0  0
    4.1570   -2.4000    0.0000 H   0  0  0  0  0  0  0  0  0  0  0  0
    4.1570    0.8000    0.0000 N   0  0  0  0  0  0  0  0  0  0  0  0
    2.7714   -0.0000    0.0000 O   0  0  0  0  0  0  0  0  0  0  0  0
    1.3857    0.8000    0.0000 C   0  0  0  0  0  0  0  0  0  0  0  0
    1.3857    2.4000    0.0000 O   0  0  0  0  0  0  0  0  0  0  0  0
    0.0001   -0.0000    0.0000 C   0  0  0  0  0  0  0  0  0  0  0  0
    0.0001   -1.6000    0.0000 C   0  0  0  0  0  0  0  0  0  0  0  0
    1.3857   -2.4000    0.0000 H   0  0  0  0  0  0  0  0  0  0  0  0
   -1.3856   -2.4000    0.0000 C   0  0  0  0  0  0  0  0  0  0  0  0
   -1.3856   -4.0000    0.0000 H   0  0  0  0  0  0  0  0  0  0  0  0
   -2.7713   -1.6000    0.0000 C   0  0  0  0  0  0  0  0  0  0  0  0
   -4.1569   -2.4000    0.0000 H   0  0  0  0  0  0  0  0  0  0  0  0
   -2.7713   -0.0000    0.0000 C   0  0  0  0  0  0  0  0  0  0  0  0
   -4.1569    0.8000    0.0000 H   0  0  0  0  0  0  0  0  0  0  0  0
   -1.3856    0.8000    0.0000 C   0  0  0  0  0  0  0  0  0  0  0  0
   -1.3856    2.4000    0.0000 H   0  0  0  0  0  0  0  0  0  0  0  0
  1  2  1  0  0  0  0
  2  3  1  0  0  0  0
  2  4  2  0  0  0  0
  4  5  1  0  0  0  0
  4  6  1  0  0  0  0
  6  7  2  0  0  0  0
  7  8  1  0  0  0  0
  8  9  1  0  0  0  0
  9 10  2  0  0  0  0
  9 11  1  0  0  0  0
 11 12  1  0  0  0  0
 12 13  1  0  0  0  0
 12 14  2  0  0  0  0
 14 15  1  0  0  0  0
 14 16  1  0  0  0  0
 16 17  1  0  0  0  0
 16 18  2  0  0  0  0
 18 19  1  0  0  0  0
 18 20  1  0  0  0  0
 20 11  2  0  0  0  0
 20 21  1  0  0  0  0
  6 22  1  0  0  0  0
 22 23  1  0  0  0  0
 22 24  2  0  0  0  0
 24  1  1  0  0  0  0
 24 25  1  0  0  0  0
  1 26  2  0  0  0  0
 26 27  1  0  0  0  0
 27 28  1  0  0  0  0
 28 29  2  0  0  0  0
 28 30  1  0  0  0  0
 30 31  1  0  0  0  0
 31 32  1  0  0  0  0
 31 33  2  0  0  0  0
 33 34  1  0  0  0  0
 33 35  1  0  0  0  0
 35 36  1  0  0  0  0
 35 37  2  0  0  0  0
 37 38  1  0  0  0  0
 37 39  1  0  0  0  0
 39 30  2  0  0  0  0
 39 40  1  0  0  0  0
M  END
> <ChemID>
100599

> <source_casrn>
120-52-5

> <CAS>
NOCAS_861754

> <SMILES>
c1ccccc1C(=O)ON=C2C=CC(=NOC(=O)c3ccccc3)C=C2

> <NAME>
2,5-Cyclohexadiene-1,4-dione, bis(O-benzoyloxime)

> <preferred_name>


> <iupac>


> <MPID>
100608

> <dsstox_substance_id>
DTXSID00861754

> <Canonical_QSARr>
O=C(ON=C1C=CC(C=C1)=NOC(=O)c1ccccc1)c1ccccc1

> <InChI_Code_QSARr>
InChI=1S/C20H14N2O4/c23-19(15-7-3-1-4-8-15)25-21-17-11-13-18(14-12-17)22-26-20(24)16-9-5-2-6-10-16/h1-14H/b21-17-,22-18+

> <InChI Key_QSARr>
WMVSVUVZSYRWIY-QGFZOGOGSA-N

> <Salt_Solvent>
?

> <Ready_Biodeg>
0.0

$$$$
100603
  -INDIGO-08031722522D

 16 17  0  0  0  0  0  0  0  0999 V2000
    1.5217    0.4944    0.0000 N   0  0  0  0  0  0  0  0  0  0  0  0
    2.0161    2.0161    0.0000 H   0  0  0  0  0  0  0  0  0  0  0  0
    2.4621   -0.8000    0.0000 C   0  0  0  0  0  0  0  0  0  0  0  0
    4.0621   -0.8000    0.0000 H   0  0  0  0  0  0  0  0  0  0  0  0
    1.5217   -2.0944    0.0000 C   0  0  0  0  0  0  0  0  0  0  0  0
    2.0161   -3.6161    0.0000 H   0  0  0  0  0  0  0  0  0  0  0  0
   -0.0000   -1.6000    0.0000 C   0  0  0  0  0  0  0  0  0  0  0  0
   -0.0000   -0.0000    0.0000 C   0  0  0  0  0  0  0  0  0  0  0  0
   -1.3856    0.8000    0.0000 C   0  0  0  0  0  0  0  0  0  0  0  0
   -1.3856    2.4000    0.0000 H   0  0  0  0  0  0  0  0  0  0  0  0
   -2.7713   -0.0000    0.0000 C   0  0  0  0  0  0  0  0  0  0  0  0
   -4.1569    0.8000    0.0000 H   0  0  0  0  0  0  0  0  0  0  0  0
   -2.7713   -1.6000    0.0000 C   0  0  0  0  0  0  0  0  0  0  0  0
   -4.1569   -2.4000    0.0000 H   0  0  0  0  0  0  0  0  0  0  0  0
   -1.3856   -2.4000    0.0000 C   0  0  0  0  0  0  0  0  0  0  0  0
   -1.3856   -4.0000    0.0000 H   0  0  0  0  0  0  0  0  0  0  0  0
  1  2  1  0  0  0  0
  1  3  1  0  0  0  0
  3  4  1  0  0  0  0
  3  5  2  0  0  0  0
  5  6  1  0  0  0  0
  5  7  1  0  0  0  0
  7  8  1  0  0  0  0
  8  1  1  0  0  0  0
  8  9  2  0  0  0  0
  9 10  1  0  0  0  0
  9 11  1  0  0  0  0
 11 12  1  0  0  0  0
 11 13  2  0  0  0  0
 13 14  1  0  0  0  0
 13 15  1  0  0  0  0
 15  7  2  0  0  0  0
 15 16  1  0  0  0  0
M  END
> <ChemID>
100603

> <source_casrn>
120-72-9

> <CAS>
120-72-9

> <SMILES>
c1cccc2[nH]ccc21

> <NAME>
INDOLE

> <preferred_name>
Indole

> <iupac>
1H-indole

> <MPID>
100612

> <dsstox_substance_id>
DTXSID0020737

> <Canonical_QSARr>
c1cccc2[nH]ccc21

> <InChI_Code_QSARr>
InChI=1S/C8H7N/c1-2-4-8-7(3-1)5-6-9-8/h1-6,9H

> <InChI Key_QSARr>
SIKJAQJRHWYJAI-UHFFFAOYSA-N

> <Salt_Solvent>
?

> <Ready_Biodeg>
1.0

$$$$
100607
  -INDIGO-08031722522D

 13 13  0  0  0  0  0  0  0  0999 V2000
    0.0000    2.7713    0.0000 Cl  0  0  0  0  0  0  0  0  0  0  0  0
   -0.8000    1.3856    0.0000 C   0  0  0  0  0  0  0  0  0  0  0  0
    0.0000   -0.0000    0.0000 C   0  0  0  0  0  0  0  0  0  0  0  0
    1.6000   -0.0000    0.0000 O   0  0  0  0  0  0  0  0  0  0  0  0
    2.4000    1.3856    0.0000 H   0  0  0  0  0  0  0  0  0  0  0  0
   -0.8000   -1.3856    0.0000 C   0  0  0  0  0  0  0  0  0  0  0  0
    0.0000   -2.7713    0.0000 H   0  0  0  0  0  0  0  0  0  0  0  0
   -2.4000   -1.3856    0.0000 C   0  0  0  0  0  0  0  0  0  0  0  0
   -3.2000   -2.7713    0.0000 H   0  0  0  0  0  0  0  0  0  0  0  0
   -3.2000   -0.0000    0.0000 C   0  0  0  0  0  0  0  0  0  0  0  0
   -4.8000   -0.0000    0.0000 Cl  0  0  0  0  0  0  0  0  0  0  0  0
   -2.4000    1.3856    0.0000 C   0  0  0  0  0  0  0  0  0  0  0  0
   -3.2000    2.7713    0.0000 H   0  0  0  0  0  0  0  0  0  0  0  0
  1  2  1  0  0  0  0
  2  3  1  0  0  0  0
  3  4  1  0  0  0  0
  4  5  1  0  0  0  0
  3  6  2  0  0  0  0
  6  7  1  0  0  0  0
  6  8  1  0  0  0  0
  8  9  1  0  0  0  0
  8 10  2  0  0  0  0
 10 11  1  0  0  0  0
 10 12  1  0  0  0  0
 12  2  2  0  0  0  0
 12 13  1  0  0  0  0
M  END
> <ChemID>
100607

> <source_casrn>
120-83-2

> <CAS>
120-83-2

> <SMILES>
Oc1ccc(Cl)cc1Cl

> <NAME>
2,4-Dichlorophenol

> <preferred_name>
2,4-Dichlorophenol

> <iupac>
2,4-dichlorophenol

> <MPID>
100616

> <dsstox_substance_id>
DTXSID1020439

> <Canonical_QSARr>
Oc1ccc(Cl)cc1Cl

> <InChI_Code_QSARr>
InChI=1S/C6H4Cl2O/c7-4-1-2-6(9)5(8)3-4/h1-3,9H

> <InChI Key_QSARr>
HFZWRUODUSTPEG-UHFFFAOYSA-N

> <Salt_Solvent>
?

> <Ready_Biodeg>
0.0

$$$$
100611
  -INDIGO-08031722522D

 18 18  0  0  0  0  0  0  0  0999 V2000
    0.5856    2.1856    0.0000 O   0  0  0  0  0  0  0  0  0  0  0  0
    1.3857    0.8000    0.0000 S   0  0  0  0  0  0  0  0  0  0  0  0
    2.1856   -0.5856    0.0000 O   0  0  0  0  0  0  0  0  0  0  0  0
    2.7713    1.6000    0.0000 O   0  0  0  0  0  0  0  0  0  0  0  0
    4.1569    0.8000    0.0000 H   0  0  0  0  0  0  0  0  0  0  0  0
    0.0001   -0.0000    0.0000 C   0  0  0  0  0  0  0  0  0  0  0  0
    0.0001   -1.6000    0.0000 C   0  0  0  0  0  0  0  0  0  0  0  0
    1.3857   -2.4000    0.0000 H   0  0  0  0  0  0  0  0  0  0  0  0
   -1.3857   -2.4000    0.0000 C   0  0  0  0  0  0  0  0  0  0  0  0
   -1.3857   -4.0000    0.0000 H   0  0  0  0  0  0  0  0  0  0  0  0
   -2.7713   -1.6000    0.0000 C   0  0  0  0  0  0  0  0  0  0  0  0
   -4.1569   -2.4000    0.0000 H   0  0  0  0  0  0  0  0  0  0  0  0
   -2.7713   -0.0000    0.0000 C   0  0  0  0  0  0  0  0  0  0  0  0
   -4.1569    0.8000    0.0000 N   0  0  0  0  0  0  0  0  0  0  0  0
   -5.5426   -0.0000    0.0000 H   0  0  0  0  0  0  0  0  0  0  0  0
   -4.1569    2.4000    0.0000 H   0  0  0  0  0  0  0  0  0  0  0  0
   -1.3857    0.8000    0.0000 C   0  0  0  0  0  0  0  0  0  0  0  0
   -1.3857    2.4000    0.0000 H   0  0  0  0  0  0  0  0  0  0  0  0
  1  2  2  0  0  0  0
  2  3  2  0  0  0  0
  2  4  1  0  0  0  0
  4  5  1  0  0  0  0
  2  6  1  0  0  0  0
  6  7  1  0  0  0  0
  7  8  1  0  0  0  0
  7  9  2  0  0  0  0
  9 10  1  0  0  0  0
  9 11  1  0  0  0  0
 11 12  1  0  0  0  0
 11 13  2  0  0  0  0
 13 14  1  0  0  0  0
 14 15  1  0  0  0  0
 14 16  1  0  0  0  0
 13 17  1  0  0  0  0
 17  6  2  0  0  0  0
 17 18  1  0  0  0  0
M  END
> <ChemID>
100611

> <source_casrn>
121-47-1

> <CAS>
121-47-1

> <SMILES>
Nc1cc(ccc1)S(O)(=O)=O

> <NAME>
Metanilic acid

> <preferred_name>
3-Aminobenzenesulfonic acid

> <iupac>
3-aminobenzenesulfonic acid

> <MPID>
100620

> <dsstox_substance_id>
DTXSID6024462

> <Canonical_QSARr>
Nc1cc(ccc1)S(O)(=O)=O

> <InChI_Code_QSARr>
InChI=1S/C6H7NO3S/c7-5-2-1-3-6(4-5)11(8,9)10/h1-4H,7H2,(H,8,9,10)

> <InChI Key_QSARr>
ZAJAQTYSTDTMCU-UHFFFAOYSA-N

> <Salt_Solvent>
?

> <Ready_Biodeg>
0.0

$$$$
100616
  -INDIGO-08031722522D

 14 14  0  0  0  0  0  0  0  0999 V2000
   -3.2000    2.7713    0.0000 Cl  0  0  0  0  0  0  0  0  0  0  0  0
   -2.4000    1.3856    0.0000 C   0  0  0  0  0  0  0  0  0  0  0  0
   -0.8000    1.3856    0.0000 C   0  0  0  0  0  0  0  0  0  0  0  0
    0.0000    2.7713    0.0000 H   0  0  0  0  0  0  0  0  0  0  0  0
    0.0000    0.0000    0.0000 C   0  0  0  0  0  0  0  0  0  0  0  0
    1.6000    0.0000    0.0000 N   0  0  0  0  0  0  0  0  0  0  0  0
    2.4000   -1.3856    0.0000 O   0  0  0  0  0  0  0  0  0  0  0  0
    2.4000    1.3856    0.0000 O   0  0  0  0  0  0  0  0  0  0  0  0
   -0.8000   -1.3856    0.0000 C   0  0  0  0  0  0  0  0  0  0  0  0
    0.0000   -2.7713    0.0000 H   0  0  0  0  0  0  0  0  0  0  0  0
   -2.4000   -1.3856    0.0000 C   0  0  0  0  0  0  0  0  0  0  0  0
   -3.2000   -2.7713    0.0000 H   0  0  0  0  0  0  0  0  0  0  0  0
   -3.2000   -0.0000    0.0000 C   0  0  0  0  0  0  0  0  0  0  0  0
   -4.8000    0.0000    0.0000 H   0  0  0  0  0  0  0  0  0  0  0  0
  1  2  1  0  0  0  0
  2  3  1  0  0  0  0
  3  4  1  0  0  0  0
  3  5  2  0  0  0  0
  5  6  1  0  0  0  0
  6  7  2  0  0  0  0
  6  8  1  0  0  0  0
  5  9  1  0  0  0  0
  9 10  1  0  0  0  0
  9 11  2  0  0  0  0
 11 12  1  0  0  0  0
 11 13  1  0  0  0  0
 13  2  2  0  0  0  0
 13 14  1  0  0  0  0
M  CHG  2   6   1   8  -1
M  END
> <ChemID>
100616

> <source_casrn>
121-73-3

> <CAS>
121-73-3

> <SMILES>
[O-][N+](=O)c1cccc(Cl)c1

> <NAME>
Benzene, 1-chloro-3-nitro-

> <preferred_name>
1-Chloro-3-nitrobenzene

> <iupac>
1-chloro-3-nitrobenzene

> <MPID>
100625

> <dsstox_substance_id>
DTXSID4021971

> <Canonical_QSARr>
[O-][N+](=O)c1cccc(Cl)c1

> <InChI_Code_QSARr>
InChI=1S/C6H4ClNO2/c7-5-2-1-3-6(4-5)8(9)10/h1-4H

> <InChI Key_QSARr>
KMAQZIILEGKYQZ-UHFFFAOYSA-N

> <Salt_Solvent>
?

> <Ready_Biodeg>
0.0

$$$$
100620
  -INDIGO-08031722522D

 29 29  0  0  0  0  0  0  0  0999 V2000
   -5.5426    1.6000    0.0000 S   0  0  0  0  0  0  0  0  0  0  0  0
   -5.5426   -0.0000    0.0000 P   0  0  0  0  0  0  0  0  0  0  0  0
   -4.1569    0.8000    0.0000 O   0  0  0  0  0  0  0  0  0  0  0  0
   -2.7713   -0.0000    0.0000 C   0  0  0  0  0  0  0  0  0  0  0  0
   -1.3856    0.8000    0.0000 C   0  0  0  0  0  0  0  0  0  0  0  0
   -1.3856    2.4000    0.0000 H   0  0  0  0  0  0  0  0  0  0  0  0
    0.0001   -0.0000    0.0000 C   0  0  0  0  0  0  0  0  0  0  0  0
    1.3856    0.8000    0.0000 C   0  0  0  0  0  0  0  0  0  0  0  0
    2.7713    1.6000    0.0000 H   0  0  0  0  0  0  0  0  0  0  0  0
    1.3856    2.4000    0.0000 H   0  0  0  0  0  0  0  0  0  0  0  0
    2.7713   -0.0000    0.0000 H   0  0  0  0  0  0  0  0  0  0  0  0
    0.0001   -1.6000    0.0000 C   0  0  0  0  0  0  0  0  0  0  0  0
    1.3856   -2.4000    0.0000 N   0  0  0  0  0  0  0  0  0  0  0  0
    1.3856   -4.0000    0.0000 O   0  0  0  0  0  0  0  0  0  0  0  0
    2.7713   -1.6000    0.0000 O   0  0  0  0  0  0  0  0  0  0  0  0
   -1.3856   -2.4000    0.0000 C   0  0  0  0  0  0  0  0  0  0  0  0
   -1.3856   -4.0000    0.0000 H   0  0  0  0  0  0  0  0  0  0  0  0
   -2.7713   -1.6000    0.0000 C   0  0  0  0  0  0  0  0  0  0  0  0
   -4.1569   -2.4000    0.0000 H   0  0  0  0  0  0  0  0  0  0  0  0
   -6.9283    0.8000    0.0000 O   0  0  0  0  0  0  0  0  0  0  0  0
   -8.3138   -0.0000    0.0000 C   0  0  0  0  0  0  0  0  0  0  0  0
   -9.6995    0.8000    0.0000 H   0  0  0  0  0  0  0  0  0  0  0  0
   -9.6995   -0.8000    0.0000 H   0  0  0  0  0  0  0  0  0  0  0  0
   -8.3138    1.6000    0.0000 H   0  0  0  0  0  0  0  0  0  0  0  0
   -6.9283   -0.8000    0.0000 O   0  0  0  0  0  0  0  0  0  0  0  0
   -6.9283   -2.4000    0.0000 C   0  0  0  0  0  0  0  0  0  0  0  0
   -6.9283   -4.0000    0.0000 H   0  0  0  0  0  0  0  0  0  0  0  0
   -8.3138   -3.2000    0.0000 H   0  0  0  0  0  0  0  0  0  0  0  0
   -5.5426   -3.2000    0.0000 H   0  0  0  0  0  0  0  0  0  0  0  0
  1  2  2  0  0  0  0
  2  3  1  0  0  0  0
  3  4  1  0  0  0  0
  4  5  1  0  0  0  0
  5  6  1  0  0  0  0
  5  7  2  0  0  0  0
  7  8  1  0  0  0  0
  8  9  1  0  0  0  0
  8 10  1  0  0  0  0
  8 11  1  0  0  0  0
  7 12  1  0  0  0  0
 12 13  1  0  0  0  0
 13 14  2  0  0  0  0
 13 15  1  0  0  0  0
 12 16  2  0  0  0  0
 16 17  1  0  0  0  0
 16 18  1  0  0  0  0
 18  4  2  0  0  0  0
 18 19  1  0  0  0  0
  2 20  1  0  0  0  0
 20 21  1  0  0  0  0
 21 22  1  0  0  0  0
 21 23  1  0  0  0  0
 21 24  1  0  0  0  0
  2 25  1  0  0  0  0
 25 26  1  0  0  0  0
 26 27  1  0  0  0  0
 26 28  1  0  0  0  0
 26 29  1  0  0  0  0
M  CHG  2  13   1  15  -1
M  END
> <ChemID>
100620

> <source_casrn>
122-14-5

> <CAS>
122-14-5

> <SMILES>
Cc1cc(ccc1[N+]([O-])=O)OP(=S)(OC)OC

> <NAME>
Fenitrothion

> <preferred_name>
Fenitrothion

> <iupac>
O,O-dimethyl O-(3-methyl-4-nitrophenyl) phosphorothioate

> <MPID>
100629

> <dsstox_substance_id>
DTXSID4032613

> <Canonical_QSARr>
Cc1cc(ccc1[N+]([O-])=O)OP(=S)(OC)OC

> <InChI_Code_QSARr>
InChI=1S/C9H12NO5PS/c1-7-6-8(4-5-9(7)10(11)12)15-16(17,13-2)14-3/h4-6H,1-3H3

> <InChI Key_QSARr>
ZNOLGFHPUIJIMJ-UHFFFAOYSA-N

> <Salt_Solvent>
?

> <Ready_Biodeg>
1.0

$$$$
100624
  -INDIGO-08031722522D

 24 25  0  0  0  0  0  0  0  0999 V2000
   -0.5473   -1.5035    0.0000 C   0  0  0  0  0  0  0  0  0  0  0  0
    0.4812   -2.7292    0.0000 H   0  0  0  0  0  0  0  0  0  0  0  0
   -2.1229   -1.7813    0.0000 C   0  0  0  0  0  0  0  0  0  0  0  0
   -2.6702   -3.2849    0.0000 H   0  0  0  0  0  0  0  0  0  0  0  0
   -3.1513   -0.5556    0.0000 C   0  0  0  0  0  0  0  0  0  0  0  0
   -4.7271   -0.8335    0.0000 H   0  0  0  0  0  0  0  0  0  0  0  0
   -2.6042    0.9479    0.0000 C   0  0  0  0  0  0  0  0  0  0  0  0
   -3.6326    2.1735    0.0000 H   0  0  0  0  0  0  0  0  0  0  0  0
   -1.0284    1.2257    0.0000 C   0  0  0  0  0  0  0  0  0  0  0  0
   -0.4813    2.7292    0.0000 H   0  0  0  0  0  0  0  0  0  0  0  0
    0.0000    0.0000    0.0000 C   0  0  0  0  0  0  0  0  0  0  0  0
    1.5756    0.2779    0.0000 N   0  0  0  0  0  0  0  0  0  0  0  0
    1.8536    1.8535    0.0000 H   0  0  0  0  0  0  0  0  0  0  0  0
    2.9614   -0.5221    0.0000 C   0  0  0  0  0  0  0  0  0  0  0  0
    2.9614   -2.1222    0.0000 C   0  0  0  0  0  0  0  0  0  0  0  0
    1.5756   -2.9222    0.0000 H   0  0  0  0  0  0  0  0  0  0  0  0
    4.3470   -2.9222    0.0000 C   0  0  0  0  0  0  0  0  0  0  0  0
    4.3470   -4.5222    0.0000 H   0  0  0  0  0  0  0  0  0  0  0  0
    5.7326   -2.1222    0.0000 C   0  0  0  0  0  0  0  0  0  0  0  0
    7.1183   -2.9222    0.0000 H   0  0  0  0  0  0  0  0  0  0  0  0
    5.7326   -0.5221    0.0000 C   0  0  0  0  0  0  0  0  0  0  0  0
    7.1183    0.2779    0.0000 H   0  0  0  0  0  0  0  0  0  0  0  0
    4.3470    0.2779    0.0000 C   0  0  0  0  0  0  0  0  0  0  0  0
    4.3470    1.8779    0.0000 H   0  0  0  0  0  0  0  0  0  0  0  0
  1  2  1  0  0  0  0
  1  3  1  0  0  0  0
  3  4  1  0  0  0  0
  3  5  2  0  0  0  0
  5  6  1  0  0  0  0
  5  7  1  0  0  0  0
  7  8  1  0  0  0  0
  7  9  2  0  0  0  0
  9 10  1  0  0  0  0
  9 11  1  0  0  0  0
 11  1  2  0  0  0  0
 11 12  1  0  0  0  0
 12 13  1  0  0  0  0
 12 14  1  0  0  0  0
 14 15  1  0  0  0  0
 15 16  1  0  0  0  0
 15 17  2  0  0  0  0
 17 18  1  0  0  0  0
 17 19  1  0  0  0  0
 19 20  1  0  0  0  0
 19 21  2  0  0  0  0
 21 22  1  0  0  0  0
 21 23  1  0  0  0  0
 23 14  2  0  0  0  0
 23 24  1  0  0  0  0
M  END
> <ChemID>
100624

> <source_casrn>
122-39-4

> <CAS>
122-39-4

> <SMILES>
c1ccccc1Nc1ccccc1

> <NAME>
Benzenamine, N-phenyl-

> <preferred_name>
Diphenylamine

> <iupac>
N-phenylaniline

> <MPID>
100633

> <dsstox_substance_id>
DTXSID4021975

> <Canonical_QSARr>
c1ccccc1Nc1ccccc1

> <InChI_Code_QSARr>
InChI=1S/C12H11N/c1-3-7-11(8-4-1)13-12-9-5-2-6-10-12/h1-10,13H

> <InChI Key_QSARr>
DMBHHRLKUKUOEG-UHFFFAOYSA-N

> <Salt_Solvent>
?

> <Ready_Biodeg>
0.0

$$$$
100628
  -INDIGO-08031722522D

 21 21  0  0  0  0  0  0  0  0999 V2000
    1.6001    2.7713    0.0000 O   0  0  0  0  0  0  0  0  0  0  0  0
    2.4000    1.3856    0.0000 C   0  0  0  0  0  0  0  0  0  0  0  0
    1.6001   -0.0000    0.0000 N   0  0  0  0  0  0  0  0  0  0  0  0
    2.4000   -1.3856    0.0000 H   0  0  0  0  0  0  0  0  0  0  0  0
   -0.0001   -0.0000    0.0000 C   0  0  0  0  0  0  0  0  0  0  0  0
   -0.8001    1.3856    0.0000 C   0  0  0  0  0  0  0  0  0  0  0  0
   -0.0001    2.7713    0.0000 H   0  0  0  0  0  0  0  0  0  0  0  0
   -2.4000    1.3856    0.0000 C   0  0  0  0  0  0  0  0  0  0  0  0
   -3.2000    2.7713    0.0000 H   0  0  0  0  0  0  0  0  0  0  0  0
   -3.2000   -0.0000    0.0000 C   0  0  0  0  0  0  0  0  0  0  0  0
   -4.8000   -0.0000    0.0000 N   0  0  0  0  0  0  0  0  0  0  0  0
   -5.6000   -1.3856    0.0000 H   0  0  0  0  0  0  0  0  0  0  0  0
   -5.6000    1.3856    0.0000 H   0  0  0  0  0  0  0  0  0  0  0  0
   -2.4000   -1.3856    0.0000 C   0  0  0  0  0  0  0  0  0  0  0  0
   -3.2000   -2.7713    0.0000 H   0  0  0  0  0  0  0  0  0  0  0  0
   -0.8001   -1.3856    0.0000 C   0  0  0  0  0  0  0  0  0  0  0  0
    0.0001   -2.7713    0.0000 H   0  0  0  0  0  0  0  0  0  0  0  0
    4.0000    1.3856    0.0000 C   0  0  0  0  0  0  0  0  0  0  0  0
    5.6000    1.3856    0.0000 H   0  0  0  0  0  0  0  0  0  0  0  0
    4.8000    2.7713    0.0000 H   0  0  0  0  0  0  0  0  0  0  0  0
    4.8000   -0.0000    0.0000 H   0  0  0  0  0  0  0  0  0  0  0  0
  1  2  2  0  0  0  0
  2  3  1  0  0  0  0
  3  4  1  0  0  0  0
  3  5  1  0  0  0  0
  5  6  1  0  0  0  0
  6  7  1  0  0  0  0
  6  8  2  0  0  0  0
  8  9  1  0  0  0  0
  8 10  1  0  0  0  0
 10 11  1  0  0  0  0
 11 12  1  0  0  0  0
 11 13  1  0  0  0  0
 10 14  2  0  0  0  0
 14 15  1  0  0  0  0
 14 16  1  0  0  0  0
 16  5  2  0  0  0  0
 16 17  1  0  0  0  0
  2 18  1  0  0  0  0
 18 19  1  0  0  0  0
 18 20  1  0  0  0  0
 18 21  1  0  0  0  0
M  END
> <ChemID>
100628

> <source_casrn>
122-80-5

> <CAS>
122-80-5

> <SMILES>
CC(=O)Nc1ccc(N)cc1

> <NAME>
Acetamide, N-(4-aminophenyl)-

> <preferred_name>
4-Aminoacetanilide

> <iupac>
N-(4-aminophenyl)acetamide

> <MPID>
100637

> <dsstox_substance_id>
DTXSID7024455

> <Canonical_QSARr>
CC(=O)Nc1ccc(N)cc1

> <InChI_Code_QSARr>
InChI=1S/C8H10N2O/c1-6(11)10-8-4-2-7(9)3-5-8/h2-5H,9H2,1H3,(H,10,11)

> <InChI Key_QSARr>
CHMBIJAOCISYEW-UHFFFAOYSA-N

> <Salt_Solvent>
?

> <Ready_Biodeg>
1.0

$$$$
100632
  -INDIGO-08031722522D

 14 14  0  0  0  0  0  0  0  0999 V2000
    1.6001   -0.0000    0.0000 O   0  0  0  0  0  0  0  0  0  0  0  0
    2.4000   -1.3856    0.0000 H   0  0  0  0  0  0  0  0  0  0  0  0
    0.0001   -0.0000    0.0000 C   0  0  0  0  0  0  0  0  0  0  0  0
   -0.8000    1.3856    0.0000 C   0  0  0  0  0  0  0  0  0  0  0  0
    0.0001    2.7713    0.0000 H   0  0  0  0  0  0  0  0  0  0  0  0
   -2.4000    1.3856    0.0000 C   0  0  0  0  0  0  0  0  0  0  0  0
   -3.1999    2.7713    0.0000 H   0  0  0  0  0  0  0  0  0  0  0  0
   -3.1999   -0.0000    0.0000 C   0  0  0  0  0  0  0  0  0  0  0  0
   -4.7999   -0.0000    0.0000 O   0  0  0  0  0  0  0  0  0  0  0  0
   -5.6000    1.3856    0.0000 H   0  0  0  0  0  0  0  0  0  0  0  0
   -2.4000   -1.3856    0.0000 C   0  0  0  0  0  0  0  0  0  0  0  0
   -3.1999   -2.7713    0.0000 H   0  0  0  0  0  0  0  0  0  0  0  0
   -0.8000   -1.3856    0.0000 C   0  0  0  0  0  0  0  0  0  0  0  0
    0.0001   -2.7713    0.0000 H   0  0  0  0  0  0  0  0  0  0  0  0
  1  2  1  0  0  0  0
  1  3  1  0  0  0  0
  3  4  1  0  0  0  0
  4  5  1  0  0  0  0
  4  6  2  0  0  0  0
  6  7  1  0  0  0  0
  6  8  1  0  0  0  0
  8  9  1  0  0  0  0
  9 10  1  0  0  0  0
  8 11  2  0  0  0  0
 11 12  1  0  0  0  0
 11 13  1  0  0  0  0
 13  3  2  0  0  0  0
 13 14  1  0  0  0  0
M  END
> <ChemID>
100632

> <source_casrn>
123-31-9

> <CAS>
123-31-9

> <SMILES>
Oc1ccc(O)cc1

> <NAME>
Hydroquinone

> <preferred_name>
Hydroquinone

> <iupac>
benzene-1,4-diol

> <MPID>
100641

> <dsstox_substance_id>
DTXSID7020716

> <Canonical_QSARr>
Oc1ccc(O)cc1

> <InChI_Code_QSARr>
InChI=1S/C6H6O2/c7-5-1-2-6(8)4-3-5/h1-4,7-8H

> <InChI Key_QSARr>
QIGBRXMKCJKVMJ-UHFFFAOYSA-N

> <Salt_Solvent>
?

> <Ready_Biodeg>
1.0

$$$$
100636
  -INDIGO-08031722522D

 20 19  0  0  0  0  0  0  0  0999 V2000
   -1.5036    0.5472    0.0000 C   0  0  0  0  0  0  0  0  0  0  0  0
   -1.1572    2.1093    0.0000 H   0  0  0  0  0  0  0  0  0  0  0  0
   -2.3632    1.8967    0.0000 H   0  0  0  0  0  0  0  0  0  0  0  0
   -2.7291   -0.4813    0.0000 C   0  0  0  0  0  0  0  0  0  0  0  0
   -4.2327    0.0660    0.0000 C   0  0  0  0  0  0  0  0  0  0  0  0
   -5.7362    0.6132    0.0000 H   0  0  0  0  0  0  0  0  0  0  0  0
   -5.4584   -0.9625    0.0000 H   0  0  0  0  0  0  0  0  0  0  0  0
   -4.5105    1.6417    0.0000 H   0  0  0  0  0  0  0  0  0  0  0  0
   -2.4513   -2.0569    0.0000 O   0  0  0  0  0  0  0  0  0  0  0  0
   -0.0000    0.0000    0.0000 C   0  0  0  0  0  0  0  0  0  0  0  0
    1.3856   -0.8000    0.0000 C   0  0  0  0  0  0  0  0  0  0  0  0
    2.7713   -1.6000    0.0000 H   0  0  0  0  0  0  0  0  0  0  0  0
    1.3856   -2.4000    0.0000 H   0  0  0  0  0  0  0  0  0  0  0  0
    2.7713    0.0000    0.0000 H   0  0  0  0  0  0  0  0  0  0  0  0
    0.8000    1.3856    0.0000 C   0  0  0  0  0  0  0  0  0  0  0  0
    1.6000    2.7713    0.0000 H   0  0  0  0  0  0  0  0  0  0  0  0
   -0.0000    2.7713    0.0000 H   0  0  0  0  0  0  0  0  0  0  0  0
    2.4000    1.3856    0.0000 H   0  0  0  0  0  0  0  0  0  0  0  0
   -0.8000   -1.3856    0.0000 O   0  0  0  0  0  0  0  0  0  0  0  0
   -0.0000   -2.7713    0.0000 H   0  0  0  0  0  0  0  0  0  0  0  0
  1  2  1  0  0  0  0
  1  3  1  0  0  0  0
  1  4  1  0  0  0  0
  4  5  1  0  0  0  0
  5  6  1  0  0  0  0
  5  7  1  0  0  0  0
  5  8  1  0  0  0  0
  4  9  2  0  0  0  0
  1 10  1  0  0  0  0
 10 11  1  0  0  0  0
 11 12  1  0  0  0  0
 11 13  1  0  0  0  0
 11 14  1  0  0  0  0
 10 15  1  0  0  0  0
 15 16  1  0  0  0  0
 15 17  1  0  0  0  0
 15 18  1  0  0  0  0
 10 19  1  0  0  0  0
 19 20  1  0  0  0  0
M  END
> <ChemID>
100636

> <source_casrn>
123-42-2

> <CAS>
123-42-2

> <SMILES>
CC(=O)CC(C)(C)O

> <NAME>
2-Pentanone, 4-hydroxy-4-methyl-

> <preferred_name>
Diacetone alcohol

> <iupac>
4-hydroxy-4-methylpentan-2-one

> <MPID>
100645

> <dsstox_substance_id>
DTXSID6024917

> <Canonical_QSARr>
CC(=O)CC(C)(C)O

> <InChI_Code_QSARr>
InChI=1S/C6H12O2/c1-5(7)4-6(2,3)8/h8H,4H2,1-3H3

> <InChI Key_QSARr>
SWXVUIWOUIDPGS-UHFFFAOYSA-N

> <Salt_Solvent>
?

> <Ready_Biodeg>
1.0

$$$$
100640
  -INDIGO-08031722522D

 13 12  0  0  0  0  0  0  0  0999 V2000
    1.3856    0.8000    0.0000 C   0  0  0  0  0  0  0  0  0  0  0  0
    2.7713    1.6000    0.0000 H   0  0  0  0  0  0  0  0  0  0  0  0
    2.7713    0.0000    0.0000 H   0  0  0  0  0  0  0  0  0  0  0  0
    1.3856    2.4000    0.0000 H   0  0  0  0  0  0  0  0  0  0  0  0
    0.0000    0.0000    0.0000 C   0  0  0  0  0  0  0  0  0  0  0  0
   -0.6123   -1.4782    0.0000 H   0  0  0  0  0  0  0  0  0  0  0  0
    0.6123   -1.4782    0.0000 H   0  0  0  0  0  0  0  0  0  0  0  0
   -1.3856    0.8000    0.0000 C   0  0  0  0  0  0  0  0  0  0  0  0
   -0.7733    2.2782    0.0000 H   0  0  0  0  0  0  0  0  0  0  0  0
   -1.9980    2.2782    0.0000 H   0  0  0  0  0  0  0  0  0  0  0  0
   -2.7713    0.0000    0.0000 C   0  0  0  0  0  0  0  0  0  0  0  0
   -4.1569    0.8000    0.0000 H   0  0  0  0  0  0  0  0  0  0  0  0
   -2.7713   -1.6000    0.0000 O   0  0  0  0  0  0  0  0  0  0  0  0
  1  2  1  0  0  0  0
  1  3  1  0  0  0  0
  1  4  1  0  0  0  0
  1  5  1  0  0  0  0
  5  6  1  0  0  0  0
  5  7  1  0  0  0  0
  5  8  1  0  0  0  0
  8  9  1  0  0  0  0
  8 10  1  0  0  0  0
  8 11  1  0  0  0  0
 11 12  1  0  0  0  0
 11 13  2  0  0  0  0
M  END
> <ChemID>
100640

> <source_casrn>
123-72-8

> <CAS>
123-72-8

> <SMILES>
CCCC=O

> <NAME>
Butanal

> <preferred_name>
Butyraldehyde

> <iupac>
butanal

> <MPID>
100649

> <dsstox_substance_id>
DTXSID8021513

> <Canonical_QSARr>
CCCC=O

> <InChI_Code_QSARr>
InChI=1S/C4H8O/c1-2-3-4-5/h4H,2-3H2,1H3

> <InChI Key_QSARr>
ZTQSAGDEMFDKMZ-UHFFFAOYSA-N

> <Salt_Solvent>
?

> <Ready_Biodeg>
1.0

$$$$
100644
  -INDIGO-08031722522D

 20 19  0  0  0  0  0  0  0  0999 V2000
    4.1569   -0.8000    0.0000 O   0  0  0  0  0  0  0  0  0  0  0  0
    5.5426    0.0000    0.0000 H   0  0  0  0  0  0  0  0  0  0  0  0
    2.7713    0.0000    0.0000 C   0  0  0  0  0  0  0  0  0  0  0  0
    1.3856   -0.8000    0.0000 C   0  0  0  0  0  0  0  0  0  0  0  0
    0.7733   -2.2782    0.0000 H   0  0  0  0  0  0  0  0  0  0  0  0
    1.9980   -2.2782    0.0000 H   0  0  0  0  0  0  0  0  0  0  0  0
   -0.0001    0.0000    0.0000 C   0  0  0  0  0  0  0  0  0  0  0  0
    0.6123    1.4782    0.0000 H   0  0  0  0  0  0  0  0  0  0  0  0
   -0.6122    1.4782    0.0000 H   0  0  0  0  0  0  0  0  0  0  0  0
   -1.3856   -0.8000    0.0000 C   0  0  0  0  0  0  0  0  0  0  0  0
   -1.9979   -2.2782    0.0000 H   0  0  0  0  0  0  0  0  0  0  0  0
   -0.7734   -2.2782    0.0000 H   0  0  0  0  0  0  0  0  0  0  0  0
   -2.7713    0.0000    0.0000 C   0  0  0  0  0  0  0  0  0  0  0  0
   -2.1589    1.4782    0.0000 H   0  0  0  0  0  0  0  0  0  0  0  0
   -3.3836    1.4782    0.0000 H   0  0  0  0  0  0  0  0  0  0  0  0
   -4.1570   -0.8000    0.0000 C   0  0  0  0  0  0  0  0  0  0  0  0
   -5.5425    0.0000    0.0000 O   0  0  0  0  0  0  0  0  0  0  0  0
   -6.9282   -0.8000    0.0000 H   0  0  0  0  0  0  0  0  0  0  0  0
   -4.1570   -2.4000    0.0000 O   0  0  0  0  0  0  0  0  0  0  0  0
    2.7713    1.6000    0.0000 O   0  0  0  0  0  0  0  0  0  0  0  0
  1  2  1  0  0  0  0
  1  3  1  0  0  0  0
  3  4  1  0  0  0  0
  4  5  1  0  0  0  0
  4  6  1  0  0  0  0
  4  7  1  0  0  0  0
  7  8  1  0  0  0  0
  7  9  1  0  0  0  0
  7 10  1  0  0  0  0
 10 11  1  0  0  0  0
 10 12  1  0  0  0  0
 10 13  1  0  0  0  0
 13 14  1  0  0  0  0
 13 15  1  0  0  0  0
 13 16  1  0  0  0  0
 16 17  1  0  0  0  0
 17 18  1  0  0  0  0
 16 19  2  0  0  0  0
  3 20  2  0  0  0  0
M  END
> <ChemID>
100644

> <source_casrn>
124-04-9

> <CAS>
124-04-9

> <SMILES>
OC(=O)CCCCC(O)=O

> <NAME>
Hexanedioic acid

> <preferred_name>
Hexanedioic acid

> <iupac>
hexanedioic acid

> <MPID>
100653

> <dsstox_substance_id>
DTXSID7021605

> <Canonical_QSARr>
OC(=O)CCCCC(O)=O

> <InChI_Code_QSARr>
InChI=1S/C6H10O4/c7-5(8)3-1-2-4-6(9)10/h1-4H2,(H,7,8)(H,9,10)

> <InChI Key_QSARr>
WNLRTRBMVRJNCN-UHFFFAOYSA-N

> <Salt_Solvent>
?

> <Ready_Biodeg>
1.0

$$$$
100648
  -INDIGO-08031722522D

 34 33  0  0  0  0  0  0  0  0999 V2000
    9.6996    0.8000    0.0000 C   0  0  0  0  0  0  0  0  0  0  0  0
   10.3117    2.2782    0.0000 H   0  0  0  0  0  0  0  0  0  0  0  0
    9.0871    2.2782    0.0000 H   0  0  0  0  0  0  0  0  0  0  0  0
    8.3140    0.0000    0.0000 C   0  0  0  0  0  0  0  0  0  0  0  0
    7.7015   -1.4782    0.0000 H   0  0  0  0  0  0  0  0  0  0  0  0
    8.9261   -1.4782    0.0000 H   0  0  0  0  0  0  0  0  0  0  0  0
    6.9283    0.8000    0.0000 O   0  0  0  0  0  0  0  0  0  0  0  0
    5.5424    0.0000    0.0000 C   0  0  0  0  0  0  0  0  0  0  0  0
    4.9303   -1.4782    0.0000 H   0  0  0  0  0  0  0  0  0  0  0  0
    6.1549   -1.4782    0.0000 H   0  0  0  0  0  0  0  0  0  0  0  0
    4.1568    0.8000    0.0000 C   0  0  0  0  0  0  0  0  0  0  0  0
    4.7692    2.2782    0.0000 H   0  0  0  0  0  0  0  0  0  0  0  0
    3.5446    2.2782    0.0000 H   0  0  0  0  0  0  0  0  0  0  0  0
    2.7712    0.0000    0.0000 O   0  0  0  0  0  0  0  0  0  0  0  0
    1.3856    0.8000    0.0000 C   0  0  0  0  0  0  0  0  0  0  0  0
    1.9980    2.2782    0.0000 H   0  0  0  0  0  0  0  0  0  0  0  0
    0.7734    2.2782    0.0000 H   0  0  0  0  0  0  0  0  0  0  0  0
   -0.0001    0.0000    0.0000 C   0  0  0  0  0  0  0  0  0  0  0  0
   -0.6122   -1.4782    0.0000 H   0  0  0  0  0  0  0  0  0  0  0  0
    0.6124   -1.4782    0.0000 H   0  0  0  0  0  0  0  0  0  0  0  0
   -1.3857    0.8000    0.0000 C   0  0  0  0  0  0  0  0  0  0  0  0
   -0.7732    2.2782    0.0000 H   0  0  0  0  0  0  0  0  0  0  0  0
   -1.9978    2.2782    0.0000 H   0  0  0  0  0  0  0  0  0  0  0  0
   -2.7713    0.0000    0.0000 C   0  0  0  0  0  0  0  0  0  0  0  0
   -4.1569   -0.8000    0.0000 H   0  0  0  0  0  0  0  0  0  0  0  0
   -4.1569    0.8000    0.0000 H   0  0  0  0  0  0  0  0  0  0  0  0
   -2.7713   -1.6000    0.0000 H   0  0  0  0  0  0  0  0  0  0  0  0
   11.0852    0.0000    0.0000 O   0  0  0  0  0  0  0  0  0  0  0  0
   12.4708    0.8000    0.0000 C   0  0  0  0  0  0  0  0  0  0  0  0
   12.4708    2.4000    0.0000 O   0  0  0  0  0  0  0  0  0  0  0  0
   13.8564    0.0000    0.0000 C   0  0  0  0  0  0  0  0  0  0  0  0
   15.2420   -0.8000    0.0000 H   0  0  0  0  0  0  0  0  0  0  0  0
   15.2420    0.8000    0.0000 H   0  0  0  0  0  0  0  0  0  0  0  0
   13.8564   -1.6000    0.0000 H   0  0  0  0  0  0  0  0  0  0  0  0
  1  2  1  0  0  0  0
  1  3  1  0  0  0  0
  1  4  1  0  0  0  0
  4  5  1  0  0  0  0
  4  6  1  0  0  0  0
  4  7  1  0  0  0  0
  7  8  1  0  0  0  0
  8  9  1  0  0  0  0
  8 10  1  0  0  0  0
  8 11  1  0  0  0  0
 11 12  1  0  0  0  0
 11 13  1  0  0  0  0
 11 14  1  0  0  0  0
 14 15  1  0  0  0  0
 15 16  1  0  0  0  0
 15 17  1  0  0  0  0
 15 18  1  0  0  0  0
 18 19  1  0  0  0  0
 18 20  1  0  0  0  0
 18 21  1  0  0  0  0
 21 22  1  0  0  0  0
 21 23  1  0  0  0  0
 21 24  1  0  0  0  0
 24 25  1  0  0  0  0
 24 26  1  0  0  0  0
 24 27  1  0  0  0  0
  1 28  1  0  0  0  0
 28 29  1  0  0  0  0
 29 30  2  0  0  0  0
 29 31  1  0  0  0  0
 31 32  1  0  0  0  0
 31 33  1  0  0  0  0
 31 34  1  0  0  0  0
M  END
> <ChemID>
100648

> <source_casrn>
124-17-4

> <CAS>
124-17-4

> <SMILES>
CCCCOCCOCCOC(C)=O

> <NAME>
Ethanol, 2-(2-butoxyethoxy)-, acetate

> <preferred_name>
2-(2-Butoxyethoxy)ethyl acetate

> <iupac>
2-(2-butoxyethoxy)ethyl acetate

> <MPID>
100657

> <dsstox_substance_id>
DTXSID9027021

> <Canonical_QSARr>
CCCCOCCOCCOC(C)=O

> <InChI_Code_QSARr>
InChI=1S/C10H20O4/c1-3-4-5-12-6-7-13-8-9-14-10(2)11/h3-9H2,1-2H3

> <InChI Key_QSARr>
VXQBJTKSVGFQOL-UHFFFAOYSA-N

> <Salt_Solvent>
?

> <Ready_Biodeg>
1.0

$$$$
100652
  -INDIGO-08031722522D

 19 18  0  0  0  0  0  0  0  0999 V2000
   -1.3856   -0.8000    0.0000 C   0  0  0  0  0  0  0  0  0  0  0  0
   -0.7733   -2.2782    0.0000 H   0  0  0  0  0  0  0  0  0  0  0  0
   -1.9979   -2.2782    0.0000 H   0  0  0  0  0  0  0  0  0  0  0  0
    0.0001    0.0000    0.0000 C   0  0  0  0  0  0  0  0  0  0  0  0
    1.3856    0.8000    0.0000 C   0  0  0  0  0  0  0  0  0  0  0  0
    2.9720    0.5912    0.0000 H   0  0  0  0  0  0  0  0  0  0  0  0
    2.3597   -0.4694    0.0000 H   0  0  0  0  0  0  0  0  0  0  0  0
    1.6634    2.3757    0.0000 O   0  0  0  0  0  0  0  0  0  0  0  0
    3.1670    2.9229    0.0000 H   0  0  0  0  0  0  0  0  0  0  0  0
   -0.8000    1.3856    0.0000 C   0  0  0  0  0  0  0  0  0  0  0  0
    0.4693    2.3597    0.0000 H   0  0  0  0  0  0  0  0  0  0  0  0
   -0.5911    2.9720    0.0000 H   0  0  0  0  0  0  0  0  0  0  0  0
   -2.4000    1.3856    0.0000 O   0  0  0  0  0  0  0  0  0  0  0  0
   -3.2000    2.7713    0.0000 H   0  0  0  0  0  0  0  0  0  0  0  0
    0.8000   -1.3857    0.0000 N   0  0  0  0  0  0  0  0  0  0  0  0
    0.2527   -2.8891    0.0000 O   0  0  0  0  0  0  0  0  0  0  0  0
    2.3756   -1.6634    0.0000 O   0  0  0  0  0  0  0  0  0  0  0  0
   -2.7713    0.0000    0.0000 O   0  0  0  0  0  0  0  0  0  0  0  0
   -4.1569   -0.8000    0.0000 H   0  0  0  0  0  0  0  0  0  0  0  0
  1  2  1  0  0  0  0
  1  3  1  0  0  0  0
  1  4  1  0  0  0  0
  4  5  1  0  0  0  0
  5  6  1  0  0  0  0
  5  7  1  0  0  0  0
  5  8  1  0  0  0  0
  8  9  1  0  0  0  0
  4 10  1  0  0  0  0
 10 11  1  0  0  0  0
 10 12  1  0  0  0  0
 10 13  1  0  0  0  0
 13 14  1  0  0  0  0
  4 15  1  0  0  0  0
 15 16  1  0  0  0  0
 15 17  2  0  0  0  0
  1 18  1  0  0  0  0
 18 19  1  0  0  0  0
M  CHG  2  15   1  16  -1
M  END
> <ChemID>
100652

> <source_casrn>
126-11-4

> <CAS>
126-11-4

> <SMILES>
[O-][N+](=O)C(CO)(CO)CO

> <NAME>
Tris(hydroxymethyl)nitromethane

> <preferred_name>
2-(Hydroxymethyl)-2-nitro-1,3-propanediol

> <iupac>
2-(hydroxymethyl)-2-nitropropane-1,3-diol

> <MPID>
100661

> <dsstox_substance_id>
DTXSID8027034

> <Canonical_QSARr>
[O-][N+](=O)C(CO)(CO)CO

> <InChI_Code_QSARr>
InChI=1S/C4H9NO5/c6-1-4(2-7,3-8)5(9)10/h6-8H,1-3H2

> <InChI Key_QSARr>
OLQJQHSAWMFDJE-UHFFFAOYSA-N

> <Salt_Solvent>
?

> <Ready_Biodeg>
1.0

$$$$
100656
  -INDIGO-08031722522D

 35 34  0  0  0  0  0  0  0  0999 V2000
    0.7999   -1.3856    0.0000 O   0  0  0  0  0  0  0  0  0  0  0  0
    0.0001    0.0001    0.0000 P   0  0  0  0  0  0  0  0  0  0  0  0
    1.5999    0.0001    0.0000 O   0  0  0  0  0  0  0  0  0  0  0  0
    2.3999   -1.3856    0.0000 C   0  0  0  0  0  0  0  0  0  0  0  0
    1.1306   -2.3597    0.0000 H   0  0  0  0  0  0  0  0  0  0  0  0
    2.1911   -2.9719    0.0000 H   0  0  0  0  0  0  0  0  0  0  0  0
    4.0000   -1.3856    0.0000 C   0  0  0  0  0  0  0  0  0  0  0  0
    5.2693   -0.4116    0.0000 H   0  0  0  0  0  0  0  0  0  0  0  0
    4.8000   -2.7713    0.0000 C   0  0  0  0  0  0  0  0  0  0  0  0
    5.6000   -4.1569    0.0000 H   0  0  0  0  0  0  0  0  0  0  0  0
    6.4000   -2.7713    0.0000 H   0  0  0  0  0  0  0  0  0  0  0  0
    4.0000   -4.1569    0.0000 Br  0  0  0  0  0  0  0  0  0  0  0  0
    4.2088    0.2007    0.0000 Br  0  0  0  0  0  0  0  0  0  0  0  0
    0.7999    1.3857    0.0000 O   0  0  0  0  0  0  0  0  0  0  0  0
    0.0001    2.7712    0.0000 C   0  0  0  0  0  0  0  0  0  0  0  0
   -1.4782    3.3835    0.0000 H   0  0  0  0  0  0  0  0  0  0  0  0
   -1.4782    2.1591    0.0000 H   0  0  0  0  0  0  0  0  0  0  0  0
    0.7999    4.1569    0.0000 C   0  0  0  0  0  0  0  0  0  0  0  0
    2.2783    3.5446    0.0000 H   0  0  0  0  0  0  0  0  0  0  0  0
    0.0001    5.5425    0.0000 C   0  0  0  0  0  0  0  0  0  0  0  0
   -0.7999    6.9282    0.0000 H   0  0  0  0  0  0  0  0  0  0  0  0
    0.7999    6.9282    0.0000 H   0  0  0  0  0  0  0  0  0  0  0  0
   -1.5999    5.5425    0.0000 Br  0  0  0  0  0  0  0  0  0  0  0  0
    2.2783    4.7692    0.0000 Br  0  0  0  0  0  0  0  0  0  0  0  0
   -1.5999    0.0001    0.0000 O   0  0  0  0  0  0  0  0  0  0  0  0
   -2.3999   -1.3856    0.0000 C   0  0  0  0  0  0  0  0  0  0  0  0
   -2.1911   -2.9719    0.0000 H   0  0  0  0  0  0  0  0  0  0  0  0
   -1.1306   -2.3597    0.0000 H   0  0  0  0  0  0  0  0  0  0  0  0
   -4.0000   -1.3856    0.0000 C   0  0  0  0  0  0  0  0  0  0  0  0
   -4.2088    0.2007    0.0000 H   0  0  0  0  0  0  0  0  0  0  0  0
   -4.8000   -2.7713    0.0000 C   0  0  0  0  0  0  0  0  0  0  0  0
   -5.6000   -4.1569    0.0000 H   0  0  0  0  0  0  0  0  0  0  0  0
   -6.4000   -2.7713    0.0000 H   0  0  0  0  0  0  0  0  0  0  0  0
   -4.0000   -4.1569    0.0000 Br  0  0  0  0  0  0  0  0  0  0  0  0
   -5.2693   -0.4116    0.0000 Br  0  0  0  0  0  0  0  0  0  0  0  0
  1  2  2  0  0  0  0
  2  3  1  0  0  0  0
  3  4  1  0  0  0  0
  4  5  1  0  0  0  0
  4  6  1  0  0  0  0
  4  7  1  0  0  0  0
  7  8  1  0  0  0  0
  7  9  1  0  0  0  0
  9 10  1  0  0  0  0
  9 11  1  0  0  0  0
  9 12  1  0  0  0  0
  7 13  1  0  0  0  0
  2 14  1  0  0  0  0
 14 15  1  0  0  0  0
 15 16  1  0  0  0  0
 15 17  1  0  0  0  0
 15 18  1  0  0  0  0
 18 19  1  0  0  0  0
 18 20  1  0  0  0  0
 20 21  1  0  0  0  0
 20 22  1  0  0  0  0
 20 23  1  0  0  0  0
 18 24  1  0  0  0  0
  2 25  1  0  0  0  0
 25 26  1  0  0  0  0
 26 27  1  0  0  0  0
 26 28  1  0  0  0  0
 26 29  1  0  0  0  0
 29 30  1  0  0  0  0
 29 31  1  0  0  0  0
 31 32  1  0  0  0  0
 31 33  1  0  0  0  0
 31 34  1  0  0  0  0
 29 35  1  0  0  0  0
M  END
> <ChemID>
100656

> <source_casrn>
126-72-7

> <CAS>
126-72-7

> <SMILES>
O=P(OCC(Br)CBr)(OCC(Br)CBr)OCC(Br)CBr

> <NAME>
1-Propanol, 2,3-dibromo-, phosphate (3:1)

> <preferred_name>
Tris(2,3-dibromopropyl) phosphate

> <iupac>
tris(2,3-dibromopropyl) phosphate

> <MPID>
100665

> <dsstox_substance_id>
DTXSID5021413

> <Canonical_QSARr>
O=P(OCC(Br)CBr)(OCC(Br)CBr)OCC(Br)CBr

> <InChI_Code_QSARr>
InChI=1S/C9H15Br6O4P/c10-1-7(13)4-17-20(16,18-5-8(14)2-11)19-6-9(15)3-12/h7-9H,1-6H2

> <InChI Key_QSARr>
PQYJRMFWJJONBO-UHFFFAOYSA-N

> <Salt_Solvent>
?

> <Ready_Biodeg>
1.0

$$$$
100661
  -INDIGO-08031722522D

 21 20  0  0  0  0  0  0  0  0999 V2000
   -4.1569    0.8000    0.0000 C   0  0  0  0  0  0  0  0  0  0  0  0
   -3.5447    2.2782    0.0000 H   0  0  0  0  0  0  0  0  0  0  0  0
   -4.7692    2.2782    0.0000 H   0  0  0  0  0  0  0  0  0  0  0  0
   -5.5425    0.0000    0.0000 C   0  0  0  0  0  0  0  0  0  0  0  0
   -6.1548   -1.4782    0.0000 H   0  0  0  0  0  0  0  0  0  0  0  0
   -6.9282    0.8000    0.0000 C   0  0  0  0  0  0  0  0  0  0  0  0
   -8.3138    1.6000    0.0000 Cl  0  0  0  0  0  0  0  0  0  0  0  0
   -8.3138    0.0000    0.0000 Cl  0  0  0  0  0  0  0  0  0  0  0  0
   -6.9282    2.4000    0.0000 Cl  0  0  0  0  0  0  0  0  0  0  0  0
   -4.9302   -1.4782    0.0000 Cl  0  0  0  0  0  0  0  0  0  0  0  0
   -2.7712    0.0000    0.0000 O   0  0  0  0  0  0  0  0  0  0  0  0
   -1.3857    0.8000    0.0000 C   0  0  0  0  0  0  0  0  0  0  0  0
   -0.7734    2.2782    0.0000 H   0  0  0  0  0  0  0  0  0  0  0  0
   -1.9979    2.2782    0.0000 H   0  0  0  0  0  0  0  0  0  0  0  0
   -0.0000    0.0000    0.0000 C   0  0  0  0  0  0  0  0  0  0  0  0
   -0.6124   -1.4782    0.0000 H   0  0  0  0  0  0  0  0  0  0  0  0
    1.3856    0.8000    0.0000 C   0  0  0  0  0  0  0  0  0  0  0  0
    2.7713    1.6000    0.0000 Cl  0  0  0  0  0  0  0  0  0  0  0  0
    2.7713    0.0000    0.0000 Cl  0  0  0  0  0  0  0  0  0  0  0  0
    1.3856    2.4000    0.0000 Cl  0  0  0  0  0  0  0  0  0  0  0  0
    0.6123   -1.4782    0.0000 Cl  0  0  0  0  0  0  0  0  0  0  0  0
  1  2  1  0  0  0  0
  1  3  1  0  0  0  0
  1  4  1  0  0  0  0
  4  5  1  0  0  0  0
  4  6  1  0  0  0  0
  6  7  1  0  0  0  0
  6  8  1  0  0  0  0
  6  9  1  0  0  0  0
  4 10  1  0  0  0  0
  1 11  1  0  0  0  0
 11 12  1  0  0  0  0
 12 13  1  0  0  0  0
 12 14  1  0  0  0  0
 12 15  1  0  0  0  0
 15 16  1  0  0  0  0
 15 17  1  0  0  0  0
 17 18  1  0  0  0  0
 17 19  1  0  0  0  0
 17 20  1  0  0  0  0
 15 21  1  0  0  0  0
M  END
> <ChemID>
100661

> <source_casrn>
127-90-2

> <CAS>
NOCAS_861778

> <SMILES>
C(Cl)(Cl)(Cl)C(Cl)COCC(Cl)C(Cl)(Cl)Cl

> <NAME>
1,1'-Oxybis[2,3,3,3-tetrachloropropane]

> <preferred_name>


> <iupac>


> <MPID>
100670

> <dsstox_substance_id>
DTXSID40861778

> <Canonical_QSARr>
ClC(Cl)(Cl)C(Cl)COCC(Cl)C(Cl)(Cl)Cl

> <InChI_Code_QSARr>
InChI=1S/C6H6Cl8O/c7-3(5(9,10)11)1-15-2-4(8)6(12,13)14/h3-4H,1-2H2

> <InChI Key_QSARr>
LNJXZKBHJZAIKQ-UHFFFAOYSA-N

> <Salt_Solvent>
?

> <Ready_Biodeg>
0.0

$$$$
100666
  -INDIGO-08031722522D

 24 26  0  0  0  0  0  0  0  0999 V2000
    2.7713   -0.0000    0.0000 C   0  0  0  0  0  0  0  0  0  0  0  0
    4.1569    0.8000    0.0000 H   0  0  0  0  0  0  0  0  0  0  0  0
    2.7713   -1.6000    0.0000 C   0  0  0  0  0  0  0  0  0  0  0  0
    4.1569   -2.4000    0.0000 H   0  0  0  0  0  0  0  0  0  0  0  0
    1.3856   -2.4000    0.0000 C   0  0  0  0  0  0  0  0  0  0  0  0
    1.3856   -4.0000    0.0000 H   0  0  0  0  0  0  0  0  0  0  0  0
   -0.0001   -1.6000    0.0000 C   0  0  0  0  0  0  0  0  0  0  0  0
   -0.0001   -0.0000    0.0000 C   0  0  0  0  0  0  0  0  0  0  0  0
   -1.3857    0.8000    0.0000 C   0  0  0  0  0  0  0  0  0  0  0  0
   -2.7712   -0.0000    0.0000 C   0  0  0  0  0  0  0  0  0  0  0  0
   -4.1569    0.8000    0.0000 C   0  0  0  0  0  0  0  0  0  0  0  0
   -4.1569    2.4000    0.0000 H   0  0  0  0  0  0  0  0  0  0  0  0
   -5.5425   -0.0000    0.0000 C   0  0  0  0  0  0  0  0  0  0  0  0
   -6.9282    0.8000    0.0000 H   0  0  0  0  0  0  0  0  0  0  0  0
   -5.5425   -1.6000    0.0000 C   0  0  0  0  0  0  0  0  0  0  0  0
   -6.9282   -2.4000    0.0000 Cl  0  0  0  0  0  0  0  0  0  0  0  0
   -4.1569   -2.4000    0.0000 C   0  0  0  0  0  0  0  0  0  0  0  0
   -4.1569   -4.0000    0.0000 H   0  0  0  0  0  0  0  0  0  0  0  0
   -2.7712   -1.6000    0.0000 C   0  0  0  0  0  0  0  0  0  0  0  0
   -1.3857   -2.4000    0.0000 C   0  0  0  0  0  0  0  0  0  0  0  0
   -1.3857   -4.0000    0.0000 O   0  0  0  0  0  0  0  0  0  0  0  0
   -1.3856    2.4000    0.0000 O   0  0  0  0  0  0  0  0  0  0  0  0
    1.3856    0.8000    0.0000 C   0  0  0  0  0  0  0  0  0  0  0  0
    1.3856    2.4000    0.0000 H   0  0  0  0  0  0  0  0  0  0  0  0
  1  2  1  0  0  0  0
  1  3  1  0  0  0  0
  3  4  1  0  0  0  0
  3  5  2  0  0  0  0
  5  6  1  0  0  0  0
  5  7  1  0  0  0  0
  7  8  2  0  0  0  0
  8  9  1  0  0  0  0
  9 10  1  0  0  0  0
 10 11  1  0  0  0  0
 11 12  1  0  0  0  0
 11 13  2  0  0  0  0
 13 14  1  0  0  0  0
 13 15  1  0  0  0  0
 15 16  1  0  0  0  0
 15 17  2  0  0  0  0
 17 18  1  0  0  0  0
 17 19  1  0  0  0  0
 19 10  2  0  0  0  0
 19 20  1  0  0  0  0
 20  7  1  0  0  0  0
 20 21  2  0  0  0  0
  9 22  2  0  0  0  0
  8 23  1  0  0  0  0
 23  1  2  0  0  0  0
 23 24  1  0  0  0  0
M  END
> <ChemID>
100666

> <source_casrn>
131-09-9

> <CAS>
131-09-9

> <SMILES>
O=C1c2cc(Cl)ccc2C(=O)c2ccccc12

> <NAME>
9,10-Anthracenedione, 2-chloro-

> <preferred_name>
2-Chloroanthraquinone

> <iupac>
2-chloroanthracene-9,10-dione

> <MPID>
100675

> <dsstox_substance_id>
DTXSID7049213

> <Canonical_QSARr>
O=C1c2cc(Cl)ccc2C(=O)c2ccccc12

> <InChI_Code_QSARr>
InChI=1S/C14H7ClO2/c15-8-5-6-11-12(7-8)14(17)10-4-2-1-3-9(10)13(11)16/h1-7H

> <InChI Key_QSARr>
FPKCTSIVDAWGFA-UHFFFAOYSA-N

> <Salt_Solvent>
?

> <Ready_Biodeg>
0.0

$$$$
100670
  -INDIGO-08031722522D

 21 23  0  0  0  0  0  0  0  0999 V2000
    3.9650    1.0530    0.0000 C   0  0  0  0  0  0  0  0  0  0  0  0
    4.7650    2.4386    0.0000 H   0  0  0  0  0  0  0  0  0  0  0  0
    4.7650   -0.3327    0.0000 C   0  0  0  0  0  0  0  0  0  0  0  0
    6.3650   -0.3327    0.0000 H   0  0  0  0  0  0  0  0  0  0  0  0
    3.9650   -1.7183    0.0000 C   0  0  0  0  0  0  0  0  0  0  0  0
    4.7650   -3.1039    0.0000 H   0  0  0  0  0  0  0  0  0  0  0  0
    2.3650   -1.7183    0.0000 C   0  0  0  0  0  0  0  0  0  0  0  0
    1.5650   -3.1039    0.0000 H   0  0  0  0  0  0  0  0  0  0  0  0
    1.5650   -0.3327    0.0000 C   0  0  0  0  0  0  0  0  0  0  0  0
    2.3650    1.0530    0.0000 C   0  0  0  0  0  0  0  0  0  0  0  0
    1.2944    2.2420    0.0000 O   0  0  0  0  0  0  0  0  0  0  0  0
   -0.1672    1.5912    0.0000 C   0  0  0  0  0  0  0  0  0  0  0  0
   -0.0000    0.0000    0.0000 C   0  0  0  0  0  0  0  0  0  0  0  0
   -1.2944   -0.9405    0.0000 C   0  0  0  0  0  0  0  0  0  0  0  0
   -1.1271   -2.5317    0.0000 H   0  0  0  0  0  0  0  0  0  0  0  0
   -2.7561   -0.2897    0.0000 C   0  0  0  0  0  0  0  0  0  0  0  0
   -4.0505   -1.2301    0.0000 H   0  0  0  0  0  0  0  0  0  0  0  0
   -2.9233    1.3015    0.0000 C   0  0  0  0  0  0  0  0  0  0  0  0
   -4.3850    1.9523    0.0000 H   0  0  0  0  0  0  0  0  0  0  0  0
   -1.6289    2.2420    0.0000 C   0  0  0  0  0  0  0  0  0  0  0  0
   -1.7962    3.8333    0.0000 H   0  0  0  0  0  0  0  0  0  0  0  0
  1  2  1  0  0  0  0
  1  3  1  0  0  0  0
  3  4  1  0  0  0  0
  3  5  2  0  0  0  0
  5  6  1  0  0  0  0
  5  7  1  0  0  0  0
  7  8  1  0  0  0  0
  7  9  2  0  0  0  0
  9 10  1  0  0  0  0
 10  1  2  0  0  0  0
 10 11  1  0  0  0  0
 11 12  1  0  0  0  0
 12 13  1  0  0  0  0
 13  9  1  0  0  0  0
 13 14  2  0  0  0  0
 14 15  1  0  0  0  0
 14 16  1  0  0  0  0
 16 17  1  0  0  0  0
 16 18  2  0  0  0  0
 18 19  1  0  0  0  0
 18 20  1  0  0  0  0
 20 12  2  0  0  0  0
 20 21  1  0  0  0  0
M  END
> <ChemID>
100670

> <source_casrn>
132-64-9

> <CAS>
132-64-9

> <SMILES>
c1cccc2oc3ccccc3c21

> <NAME>
Dibenzofuran

> <preferred_name>
Dibenzofuran

> <iupac>
dibenzo[b,d]furan

> <MPID>
100679

> <dsstox_substance_id>
DTXSID2021993

> <Canonical_QSARr>
c1cccc2oc3ccccc3c21

> <InChI_Code_QSARr>
InChI=1S/C12H8O/c1-3-7-11-9(5-1)10-6-2-4-8-12(10)13-11/h1-8H

> <InChI Key_QSARr>
TXCDCPKCNAJMEE-UHFFFAOYSA-N

> <Salt_Solvent>
?

> <Ready_Biodeg>
1.0

$$$$
100674
  -INDIGO-08031722522D

 17 17  0  0  0  0  0  0  0  0999 V2000
    1.3857    2.4000    0.0000 Cl  0  0  0  0  0  0  0  0  0  0  0  0
    1.3857    0.8000    0.0000 C   0  0  0  0  0  0  0  0  0  0  0  0
    2.7713   -0.0000    0.0000 C   0  0  0  0  0  0  0  0  0  0  0  0
    4.1569    0.8000    0.0000 N   0  0  0  0  0  0  0  0  0  0  0  0
    5.5426   -0.0000    0.0000 H   0  0  0  0  0  0  0  0  0  0  0  0
    4.1569    2.4000    0.0000 H   0  0  0  0  0  0  0  0  0  0  0  0
    2.7713   -1.6000    0.0000 C   0  0  0  0  0  0  0  0  0  0  0  0
    4.1569   -2.4000    0.0000 H   0  0  0  0  0  0  0  0  0  0  0  0
    1.3857   -2.4000    0.0000 C   0  0  0  0  0  0  0  0  0  0  0  0
    1.3857   -4.0000    0.0000 Cl  0  0  0  0  0  0  0  0  0  0  0  0
   -0.0001   -1.6000    0.0000 C   0  0  0  0  0  0  0  0  0  0  0  0
   -1.3857   -2.4000    0.0000 H   0  0  0  0  0  0  0  0  0  0  0  0
   -0.0001   -0.0000    0.0000 C   0  0  0  0  0  0  0  0  0  0  0  0
   -1.3857    0.8000    0.0000 C   0  0  0  0  0  0  0  0  0  0  0  0
   -1.3857    2.4000    0.0000 O   0  0  0  0  0  0  0  0  0  0  0  0
   -2.7713   -0.0000    0.0000 O   0  0  0  0  0  0  0  0  0  0  0  0
   -4.1569    0.8000    0.0000 H   0  0  0  0  0  0  0  0  0  0  0  0
  1  2  1  0  0  0  0
  2  3  1  0  0  0  0
  3  4  1  0  0  0  0
  4  5  1  0  0  0  0
  4  6  1  0  0  0  0
  3  7  2  0  0  0  0
  7  8  1  0  0  0  0
  7  9  1  0  0  0  0
  9 10  1  0  0  0  0
  9 11  2  0  0  0  0
 11 12  1  0  0  0  0
 11 13  1  0  0  0  0
 13  2  2  0  0  0  0
 13 14  1  0  0  0  0
 14 15  2  0  0  0  0
 14 16  1  0  0  0  0
 16 17  1  0  0  0  0
M  END
> <ChemID>
100674

> <source_casrn>
133-90-4

> <CAS>
133-90-4

> <SMILES>
Nc1cc(Cl)cc(C(O)=O)c1Cl

> <NAME>
3-AMINO-2,5-DICHLOROBENZOIC ACID

> <preferred_name>
Chloramben

> <iupac>
3-amino-2,5-dichlorobenzoic acid

> <MPID>
100683

> <dsstox_substance_id>
DTXSID2020262

> <Canonical_QSARr>
Nc1cc(Cl)cc(C(O)=O)c1Cl

> <InChI_Code_QSARr>
InChI=1S/C7H5Cl2NO2/c8-3-1-4(7(11)12)6(9)5(10)2-3/h1-2H,10H2,(H,11,12)

> <InChI Key_QSARr>
HSSBORCLYSCBJR-UHFFFAOYSA-N

> <Salt_Solvent>
?

> <Ready_Biodeg>
0.0

$$$$
100678
  -INDIGO-08031722522D

 23 23  0  0  0  0  0  0  0  0999 V2000
    2.7713    0.0000    0.0000 C   0  0  0  0  0  0  0  0  0  0  0  0
    4.1569    0.8001    0.0000 H   0  0  0  0  0  0  0  0  0  0  0  0
    4.1569   -0.7999    0.0000 H   0  0  0  0  0  0  0  0  0  0  0  0
    2.7713    1.6000    0.0000 H   0  0  0  0  0  0  0  0  0  0  0  0
    1.3856    0.8001    0.0000 O   0  0  0  0  0  0  0  0  0  0  0  0
   -0.0001    0.0000    0.0000 C   0  0  0  0  0  0  0  0  0  0  0  0
   -0.0001   -1.6000    0.0000 C   0  0  0  0  0  0  0  0  0  0  0  0
    1.3856   -2.4001    0.0000 H   0  0  0  0  0  0  0  0  0  0  0  0
   -1.3856   -2.3999    0.0000 C   0  0  0  0  0  0  0  0  0  0  0  0
   -1.3856   -3.9999    0.0000 C   0  0  0  0  0  0  0  0  0  0  0  0
   -2.7712   -4.8000    0.0000 H   0  0  0  0  0  0  0  0  0  0  0  0
   -0.0001   -4.8000    0.0000 O   0  0  0  0  0  0  0  0  0  0  0  0
   -2.7712   -1.6000    0.0000 C   0  0  0  0  0  0  0  0  0  0  0  0
   -4.1569   -2.3999    0.0000 H   0  0  0  0  0  0  0  0  0  0  0  0
   -2.7712    0.0000    0.0000 C   0  0  0  0  0  0  0  0  0  0  0  0
   -4.1569    0.8001    0.0000 O   0  0  0  0  0  0  0  0  0  0  0  0
   -5.5425    0.0000    0.0000 C   0  0  0  0  0  0  0  0  0  0  0  0
   -6.9282    0.8001    0.0000 H   0  0  0  0  0  0  0  0  0  0  0  0
   -6.9282   -0.7999    0.0000 H   0  0  0  0  0  0  0  0  0  0  0  0
   -5.5425    1.6000    0.0000 H   0  0  0  0  0  0  0  0  0  0  0  0
   -1.3856    0.8001    0.0000 C   0  0  0  0  0  0  0  0  0  0  0  0
   -1.3856    2.4001    0.0000 O   0  0  0  0  0  0  0  0  0  0  0  0
   -2.7712    3.2000    0.0000 H   0  0  0  0  0  0  0  0  0  0  0  0
  1  2  1  0  0  0  0
  1  3  1  0  0  0  0
  1  4  1  0  0  0  0
  1  5  1  0  0  0  0
  5  6  1  0  0  0  0
  6  7  1  0  0  0  0
  7  8  1  0  0  0  0
  7  9  2  0  0  0  0
  9 10  1  0  0  0  0
 10 11  1  0  0  0  0
 10 12  2  0  0  0  0
  9 13  1  0  0  0  0
 13 14  1  0  0  0  0
 13 15  2  0  0  0  0
 15 16  1  0  0  0  0
 16 17  1  0  0  0  0
 17 18  1  0  0  0  0
 17 19  1  0  0  0  0
 17 20  1  0  0  0  0
 15 21  1  0  0  0  0
 21  6  2  0  0  0  0
 21 22  1  0  0  0  0
 22 23  1  0  0  0  0
M  END
> <ChemID>
100678

> <source_casrn>
134-96-3

> <CAS>
134-96-3

> <SMILES>
COc1cc(C=O)cc(OC)c1O

> <NAME>
Syringaldehyde

> <preferred_name>
Syringaldehyde

> <iupac>
4-Hydroxy-3,5-dimethoxybenzaldehyde

> <MPID>
100687

> <dsstox_substance_id>
DTXSID2059643

> <Canonical_QSARr>
COc1cc(C=O)cc(OC)c1O

> <InChI_Code_QSARr>
InChI=1S/C9H10O4/c1-12-7-3-6(5-10)4-8(13-2)9(7)11/h3-5,11H,1-2H3

> <InChI Key_QSARr>
KCDXJAYRVLXPFO-UHFFFAOYSA-N

> <Salt_Solvent>
?

> <Ready_Biodeg>
1.0

$$$$
100682
  -INDIGO-08031722522D

 30 32  0  0  0  0  0  0  0  0999 V2000
    1.3857    0.8000    0.0000 C   0  0  0  0  0  0  0  0  0  0  0  0
    1.3857    2.4000    0.0000 H   0  0  0  0  0  0  0  0  0  0  0  0
    0.0000    0.0001    0.0000 C   0  0  0  0  0  0  0  0  0  0  0  0
    0.0000   -1.6000    0.0000 C   0  0  0  0  0  0  0  0  0  0  0  0
   -1.3857   -2.4000    0.0000 C   0  0  0  0  0  0  0  0  0  0  0  0
   -1.3857   -4.0000    0.0000 H   0  0  0  0  0  0  0  0  0  0  0  0
   -2.7712   -1.6000    0.0000 C   0  0  0  0  0  0  0  0  0  0  0  0
   -4.1569   -2.4000    0.0000 H   0  0  0  0  0  0  0  0  0  0  0  0
   -2.7712    0.0001    0.0000 C   0  0  0  0  0  0  0  0  0  0  0  0
   -4.1569    0.8000    0.0000 H   0  0  0  0  0  0  0  0  0  0  0  0
   -1.3857    0.8000    0.0000 C   0  0  0  0  0  0  0  0  0  0  0  0
   -1.3857    2.4000    0.0000 H   0  0  0  0  0  0  0  0  0  0  0  0
    1.3857   -2.4000    0.0000 C   0  0  0  0  0  0  0  0  0  0  0  0
    1.3857   -4.0000    0.0000 H   0  0  0  0  0  0  0  0  0  0  0  0
    2.7712   -1.6000    0.0000 C   0  0  0  0  0  0  0  0  0  0  0  0
    4.1569   -2.4000    0.0000 H   0  0  0  0  0  0  0  0  0  0  0  0
    2.7712    0.0001    0.0000 C   0  0  0  0  0  0  0  0  0  0  0  0
    4.1569    0.8000    0.0000 N   0  0  0  0  0  0  0  0  0  0  0  0
    3.8790    2.3757    0.0000 H   0  0  0  0  0  0  0  0  0  0  0  0
    5.7327    0.5222    0.0000 C   0  0  0  0  0  0  0  0  0  0  0  0
    6.7611    1.7479    0.0000 C   0  0  0  0  0  0  0  0  0  0  0  0
    6.2138    3.2513    0.0000 H   0  0  0  0  0  0  0  0  0  0  0  0
    8.3368    1.4700    0.0000 C   0  0  0  0  0  0  0  0  0  0  0  0
    9.3653    2.6957    0.0000 H   0  0  0  0  0  0  0  0  0  0  0  0
    8.8839   -0.0335    0.0000 C   0  0  0  0  0  0  0  0  0  0  0  0
   10.4597   -0.3113    0.0000 H   0  0  0  0  0  0  0  0  0  0  0  0
    7.8555   -1.2591    0.0000 C   0  0  0  0  0  0  0  0  0  0  0  0
    8.4029   -2.7627    0.0000 H   0  0  0  0  0  0  0  0  0  0  0  0
    6.2798   -0.9813    0.0000 C   0  0  0  0  0  0  0  0  0  0  0  0
    5.2514   -2.2071    0.0000 H   0  0  0  0  0  0  0  0  0  0  0  0
  1  2  1  0  0  0  0
  1  3  1  0  0  0  0
  3  4  1  0  0  0  0
  4  5  2  0  0  0  0
  5  6  1  0  0  0  0
  5  7  1  0  0  0  0
  7  8  1  0  0  0  0
  7  9  2  0  0  0  0
  9 10  1  0  0  0  0
  9 11  1  0  0  0  0
 11  3  2  0  0  0  0
 11 12  1  0  0  0  0
  4 13  1  0  0  0  0
 13 14  1  0  0  0  0
 13 15  2  0  0  0  0
 15 16  1  0  0  0  0
 15 17  1  0  0  0  0
 17  1  2  0  0  0  0
 17 18  1  0  0  0  0
 18 19  1  0  0  0  0
 18 20  1  0  0  0  0
 20 21  1  0  0  0  0
 21 22  1  0  0  0  0
 21 23  2  0  0  0  0
 23 24  1  0  0  0  0
 23 25  1  0  0  0  0
 25 26  1  0  0  0  0
 25 27  2  0  0  0  0
 27 28  1  0  0  0  0
 27 29  1  0  0  0  0
 29 20  2  0  0  0  0
 29 30  1  0  0  0  0
M  END
> <ChemID>
100682

> <source_casrn>
135-88-6

> <CAS>
135-88-6

> <SMILES>
c1c(ccc2ccccc21)Nc1ccccc1

> <NAME>
2-Naphthalenamine, N-phenyl-

> <preferred_name>
N-Phenyl-2-naphthylamine

> <iupac>
N-phenylnaphthalen-2-amine

> <MPID>
100691

> <dsstox_substance_id>
DTXSID4021131

> <Canonical_QSARr>
c1c(ccc2ccccc21)Nc1ccccc1

> <InChI_Code_QSARr>
InChI=1S/C16H13N/c1-2-8-15(9-3-1)17-16-11-10-13-6-4-5-7-14(13)12-16/h1-12,17H

> <InChI Key_QSARr>
KEQFTVQCIQJIQW-UHFFFAOYSA-N

> <Salt_Solvent>
?

> <Ready_Biodeg>
0.0

$$$$
100685
  -INDIGO-08031722522D

 68 67  0  0  0  0  0  0  0  0999 V2000
   24.9413    1.6000    0.0000 O   0  0  0  0  0  0  0  0  0  0  0  0
   26.3272    0.8000    0.0000 H   0  0  0  0  0  0  0  0  0  0  0  0
   23.5560    0.8000    0.0000 S   0  0  0  0  0  0  0  0  0  0  0  0
   22.1702    0.0000    0.0000 C   0  0  0  0  0  0  0  0  0  0  0  0
   21.5582   -1.4782    0.0000 H   0  0  0  0  0  0  0  0  0  0  0  0
   22.7827   -1.4782    0.0000 H   0  0  0  0  0  0  0  0  0  0  0  0
   20.7849    0.8000    0.0000 C   0  0  0  0  0  0  0  0  0  0  0  0
   21.3968    2.2782    0.0000 H   0  0  0  0  0  0  0  0  0  0  0  0
   20.1724    2.2782    0.0000 H   0  0  0  0  0  0  0  0  0  0  0  0
   19.3990    0.0000    0.0000 N   0  0  0  0  0  0  0  0  0  0  0  0
   19.3990   -1.6000    0.0000 C   0  0  0  0  0  0  0  0  0  0  0  0
   19.3990   -3.2000    0.0000 H   0  0  0  0  0  0  0  0  0  0  0  0
   20.7849   -2.4000    0.0000 H   0  0  0  0  0  0  0  0  0  0  0  0
   18.0132   -2.4000    0.0000 H   0  0  0  0  0  0  0  0  0  0  0  0
   18.0132    0.8000    0.0000 C   0  0  0  0  0  0  0  0  0  0  0  0
   16.6279    0.0000    0.0000 C   0  0  0  0  0  0  0  0  0  0  0  0
   16.0154   -1.4782    0.0000 H   0  0  0  0  0  0  0  0  0  0  0  0
   17.2399   -1.4782    0.0000 H   0  0  0  0  0  0  0  0  0  0  0  0
   15.2420    0.8000    0.0000 C   0  0  0  0  0  0  0  0  0  0  0  0
   15.8545    2.2782    0.0000 H   0  0  0  0  0  0  0  0  0  0  0  0
   14.6296    2.2782    0.0000 H   0  0  0  0  0  0  0  0  0  0  0  0
   13.8562    0.0000    0.0000 C   0  0  0  0  0  0  0  0  0  0  0  0
   13.2442   -1.4782    0.0000 H   0  0  0  0  0  0  0  0  0  0  0  0
   14.4687   -1.4782    0.0000 H   0  0  0  0  0  0  0  0  0  0  0  0
   12.4709    0.8000    0.0000 C   0  0  0  0  0  0  0  0  0  0  0  0
   13.0829    2.2782    0.0000 H   0  0  0  0  0  0  0  0  0  0  0  0
   11.8584    2.2782    0.0000 H   0  0  0  0  0  0  0  0  0  0  0  0
   11.0851    0.0000    0.0000 C   0  0  0  0  0  0  0  0  0  0  0  0
   10.4731   -1.4782    0.0000 H   0  0  0  0  0  0  0  0  0  0  0  0
   11.6975   -1.4782    0.0000 H   0  0  0  0  0  0  0  0  0  0  0  0
    9.6997    0.8000    0.0000 C   0  0  0  0  0  0  0  0  0  0  0  0
   10.3117    2.2782    0.0000 H   0  0  0  0  0  0  0  0  0  0  0  0
    9.0873    2.2782    0.0000 H   0  0  0  0  0  0  0  0  0  0  0  0
    8.3139    0.0000    0.0000 C   0  0  0  0  0  0  0  0  0  0  0  0
    7.7014   -1.4782    0.0000 H   0  0  0  0  0  0  0  0  0  0  0  0
    8.9259   -1.4782    0.0000 H   0  0  0  0  0  0  0  0  0  0  0  0
    6.9281    0.8000    0.0000 C   0  0  0  0  0  0  0  0  0  0  0  0
    6.9281    2.4000    0.0000 H   0  0  0  0  0  0  0  0  0  0  0  0
    5.5428    0.0000    0.0000 C   0  0  0  0  0  0  0  0  0  0  0  0
    5.5428   -1.6000    0.0000 H   0  0  0  0  0  0  0  0  0  0  0  0
    4.1569    0.8000    0.0000 C   0  0  0  0  0  0  0  0  0  0  0  0
    4.7694    2.2782    0.0000 H   0  0  0  0  0  0  0  0  0  0  0  0
    3.5444    2.2782    0.0000 H   0  0  0  0  0  0  0  0  0  0  0  0
    2.7711    0.0000    0.0000 C   0  0  0  0  0  0  0  0  0  0  0  0
    2.1591   -1.4782    0.0000 H   0  0  0  0  0  0  0  0  0  0  0  0
    3.3836   -1.4782    0.0000 H   0  0  0  0  0  0  0  0  0  0  0  0
    1.3858    0.8000    0.0000 C   0  0  0  0  0  0  0  0  0  0  0  0
    1.9977    2.2782    0.0000 H   0  0  0  0  0  0  0  0  0  0  0  0
    0.7733    2.2782    0.0000 H   0  0  0  0  0  0  0  0  0  0  0  0
   -0.0001    0.0000    0.0000 C   0  0  0  0  0  0  0  0  0  0  0  0
   -0.6120   -1.4782    0.0000 H   0  0  0  0  0  0  0  0  0  0  0  0
    0.6124   -1.4782    0.0000 H   0  0  0  0  0  0  0  0  0  0  0  0
   -1.3854    0.8000    0.0000 C   0  0  0  0  0  0  0  0  0  0  0  0
   -0.7734    2.2782    0.0000 H   0  0  0  0  0  0  0  0  0  0  0  0
   -1.9979    2.2782    0.0000 H   0  0  0  0  0  0  0  0  0  0  0  0
   -2.7712    0.0000    0.0000 C   0  0  0  0  0  0  0  0  0  0  0  0
   -3.3837   -1.4782    0.0000 H   0  0  0  0  0  0  0  0  0  0  0  0
   -2.1592   -1.4782    0.0000 H   0  0  0  0  0  0  0  0  0  0  0  0
   -4.1570    0.8000    0.0000 C   0  0  0  0  0  0  0  0  0  0  0  0
   -3.5446    2.2782    0.0000 H   0  0  0  0  0  0  0  0  0  0  0  0
   -4.7690    2.2782    0.0000 H   0  0  0  0  0  0  0  0  0  0  0  0
   -5.5424    0.0000    0.0000 C   0  0  0  0  0  0  0  0  0  0  0  0
   -6.9282   -0.8000    0.0000 H   0  0  0  0  0  0  0  0  0  0  0  0
   -6.9282    0.8000    0.0000 H   0  0  0  0  0  0  0  0  0  0  0  0
   -5.5424   -1.6000    0.0000 H   0  0  0  0  0  0  0  0  0  0  0  0
   18.0132    2.4000    0.0000 O   0  0  0  0  0  0  0  0  0  0  0  0
   24.3557   -0.5856    0.0000 O   0  0  0  0  0  0  0  0  0  0  0  0
   22.7558    2.1856    0.0000 O   0  0  0  0  0  0  0  0  0  0  0  0
  1  2  1  0  0  0  0
  1  3  1  0  0  0  0
  3  4  1  0  0  0  0
  4  5  1  0  0  0  0
  4  6  1  0  0  0  0
  4  7  1  0  0  0  0
  7  8  1  0  0  0  0
  7  9  1  0  0  0  0
  7 10  1  0  0  0  0
 10 11  1  0  0  0  0
 11 12  1  0  0  0  0
 11 13  1  0  0  0  0
 11 14  1  0  0  0  0
 10 15  1  0  0  0  0
 15 16  1  0  0  0  0
 16 17  1  0  0  0  0
 16 18  1  0  0  0  0
 16 19  1  0  0  0  0
 19 20  1  0  0  0  0
 19 21  1  0  0  0  0
 19 22  1  0  0  0  0
 22 23  1  0  0  0  0
 22 24  1  0  0  0  0
 22 25  1  0  0  0  0
 25 26  1  0  0  0  0
 25 27  1  0  0  0  0
 25 28  1  0  0  0  0
 28 29  1  0  0  0  0
 28 30  1  0  0  0  0
 28 31  1  0  0  0  0
 31 32  1  0  0  0  0
 31 33  1  0  0  0  0
 31 34  1  0  0  0  0
 34 35  1  0  0  0  0
 34 36  1  0  0  0  0
 34 37  1  0  0  0  0
 37 38  1  0  0  0  0
 37 39  2  0  0  0  0
 39 40  1  0  0  0  0
 39 41  1  0  0  0  0
 41 42  1  0  0  0  0
 41 43  1  0  0  0  0
 41 44  1  0  0  0  0
 44 45  1  0  0  0  0
 44 46  1  0  0  0  0
 44 47  1  0  0  0  0
 47 48  1  0  0  0  0
 47 49  1  0  0  0  0
 47 50  1  0  0  0  0
 50 51  1  0  0  0  0
 50 52  1  0  0  0  0
 50 53  1  0  0  0  0
 53 54  1  0  0  0  0
 53 55  1  0  0  0  0
 53 56  1  0  0  0  0
 56 57  1  0  0  0  0
 56 58  1  0  0  0  0
 56 59  1  0  0  0  0
 59 60  1  0  0  0  0
 59 61  1  0  0  0  0
 59 62  1  0  0  0  0
 62 63  1  0  0  0  0
 62 64  1  0  0  0  0
 62 65  1  0  0  0  0
 15 66  2  0  0  0  0
  3 67  2  0  0  0  0
  3 68  2  0  0  0  0
M  END
> <ChemID>
100685

> <source_casrn>
137-20-2

> <CAS>
137-20-2

> <SMILES>
CCCCCCCCC=CCCCCCCCC(=O)N(C)CCS(=O)(=O)O[Na]

> <NAME>
SODIUM N-METHYL-N-OLEOYLTAURINE

> <preferred_name>
Sodium N-methyl-N-oleoyltaurate

> <iupac>
sodium 2-{methyl[(9Z)-octadec-9-enoyl]amino}ethanesulfonate

> <MPID>
100694

> <dsstox_substance_id>
DTXSID5027067

> <Canonical_QSARr>
CCCCCCCCC=CCCCCCCCC(=O)N(C)CCS(O)(=O)=O

> <InChI_Code_QSARr>
InChI=1S/C21H41NO4S/c1-3-4-5-6-7-8-9-10-11-12-13-14-15-16-17-18-21(23)22(2)19-20-27(24,25)26/h10-11H,3-9,12-20H2,1-2H3,(H,24,25,26)/b11-10+

> <InChI Key_QSARr>
GXJQMKFJQFGQKV-ZHACJKMWSA-N

> <Salt_Solvent>
[Na+]

> <Ready_Biodeg>
1.0

$$$$
100687
  -INDIGO-08031722522D

 18 18  0  0  0  0  0  0  0  0999 V2000
    0.0000   -0.0000    0.0000 C   0  0  0  0  0  0  0  0  0  0  0  0
   -0.7999    1.3856    0.0000 C   0  0  0  0  0  0  0  0  0  0  0  0
    0.0000    2.7713    0.0000 H   0  0  0  0  0  0  0  0  0  0  0  0
   -2.4000    1.3856    0.0000 C   0  0  0  0  0  0  0  0  0  0  0  0
   -3.2000    2.7713    0.0000 H   0  0  0  0  0  0  0  0  0  0  0  0
   -3.2000   -0.0000    0.0000 C   0  0  0  0  0  0  0  0  0  0  0  0
   -4.8000   -0.0000    0.0000 N   0  0  0  0  0  0  0  0  0  0  0  0
   -5.6000    1.3856    0.0000 O   0  0  0  0  0  0  0  0  0  0  0  0
   -5.6000   -1.3856    0.0000 O   0  0  0  0  0  0  0  0  0  0  0  0
   -2.4000   -1.3856    0.0000 C   0  0  0  0  0  0  0  0  0  0  0  0
   -3.2000   -2.7713    0.0000 H   0  0  0  0  0  0  0  0  0  0  0  0
   -0.7999   -1.3856    0.0000 C   0  0  0  0  0  0  0  0  0  0  0  0
    0.0000   -2.7713    0.0000 H   0  0  0  0  0  0  0  0  0  0  0  0
    1.6000   -0.0000    0.0000 S   0  0  0  0  0  0  0  0  0  0  0  0
    3.2000   -0.0000    0.0000 O   0  0  0  0  0  0  0  0  0  0  0  0
    4.0000   -1.3856    0.0000 H   0  0  0  0  0  0  0  0  0  0  0  0
    1.6000    1.6000    0.0000 O   0  0  0  0  0  0  0  0  0  0  0  0
    1.6000   -1.6000    0.0000 O   0  0  0  0  0  0  0  0  0  0  0  0
  1  2  1  0  0  0  0
  2  3  1  0  0  0  0
  2  4  2  0  0  0  0
  4  5  1  0  0  0  0
  4  6  1  0  0  0  0
  6  7  1  0  0  0  0
  7  8  2  0  0  0  0
  7  9  1  0  0  0  0
  6 10  2  0  0  0  0
 10 11  1  0  0  0  0
 10 12  1  0  0  0  0
 12  1  2  0  0  0  0
 12 13  1  0  0  0  0
  1 14  1  0  0  0  0
 14 15  1  0  0  0  0
 15 16  1  0  0  0  0
 14 17  2  0  0  0  0
 14 18  2  0  0  0  0
M  CHG  2   7   1   9  -1
M  END
> <ChemID>
100687

> <source_casrn>
138-42-1

> <CAS>
138-42-1

> <SMILES>
[O-][N+](=O)c1ccc(cc1)S(O)(=O)=O

> <NAME>
Benzenesulfonic acid, 4-nitro-

> <preferred_name>
Benzenesulfonic acid, 4-nitro-

> <iupac>
4-Nitrobenzenesulfonic acid

> <MPID>
100696

> <dsstox_substance_id>
DTXSID3059682

> <Canonical_QSARr>
[O-][N+](=O)c1ccc(cc1)S(O)(=O)=O

> <InChI_Code_QSARr>
InChI=1S/C6H5NO5S/c8-7(9)5-1-3-6(4-2-5)13(10,11)12/h1-4H,(H,10,11,12)

> <InChI Key_QSARr>
SPXOTSHWBDUUMT-UHFFFAOYSA-N

> <Salt_Solvent>
?

> <Ready_Biodeg>
0.0

$$$$
100693
  -INDIGO-08031722522D

 21 21  0  0  0  0  0  0  0  0999 V2000
    5.5425   -0.0000    0.0000 C   0  0  0  0  0  0  0  0  0  0  0  0
    6.9282   -0.8000    0.0000 H   0  0  0  0  0  0  0  0  0  0  0  0
    6.9282    0.8000    0.0000 H   0  0  0  0  0  0  0  0  0  0  0  0
    5.5425   -1.6000    0.0000 H   0  0  0  0  0  0  0  0  0  0  0  0
    4.1569    0.8000    0.0000 C   0  0  0  0  0  0  0  0  0  0  0  0
    4.1569    2.4000    0.0000 O   0  0  0  0  0  0  0  0  0  0  0  0
    2.7712   -0.0000    0.0000 O   0  0  0  0  0  0  0  0  0  0  0  0
    1.3857    0.8000    0.0000 C   0  0  0  0  0  0  0  0  0  0  0  0
    0.7734    2.2782    0.0000 H   0  0  0  0  0  0  0  0  0  0  0  0
    1.9979    2.2782    0.0000 H   0  0  0  0  0  0  0  0  0  0  0  0
    0.0001   -0.0000    0.0000 C   0  0  0  0  0  0  0  0  0  0  0  0
   -1.3856    0.8000    0.0000 C   0  0  0  0  0  0  0  0  0  0  0  0
   -1.3856    2.4000    0.0000 H   0  0  0  0  0  0  0  0  0  0  0  0
   -2.7713   -0.0000    0.0000 C   0  0  0  0  0  0  0  0  0  0  0  0
   -4.1569    0.8000    0.0000 H   0  0  0  0  0  0  0  0  0  0  0  0
   -2.7713   -1.6000    0.0000 C   0  0  0  0  0  0  0  0  0  0  0  0
   -4.1569   -2.4000    0.0000 H   0  0  0  0  0  0  0  0  0  0  0  0
   -1.3856   -2.4000    0.0000 C   0  0  0  0  0  0  0  0  0  0  0  0
   -1.3856   -4.0000    0.0000 H   0  0  0  0  0  0  0  0  0  0  0  0
    0.0001   -1.6000    0.0000 C   0  0  0  0  0  0  0  0  0  0  0  0
    1.3857   -2.4000    0.0000 H   0  0  0  0  0  0  0  0  0  0  0  0
  1  2  1  0  0  0  0
  1  3  1  0  0  0  0
  1  4  1  0  0  0  0
  1  5  1  0  0  0  0
  5  6  2  0  0  0  0
  5  7  1  0  0  0  0
  7  8  1  0  0  0  0
  8  9  1  0  0  0  0
  8 10  1  0  0  0  0
  8 11  1  0  0  0  0
 11 12  1  0  0  0  0
 12 13  1  0  0  0  0
 12 14  2  0  0  0  0
 14 15  1  0  0  0  0
 14 16  1  0  0  0  0
 16 17  1  0  0  0  0
 16 18  2  0  0  0  0
 18 19  1  0  0  0  0
 18 20  1  0  0  0  0
 20 11  2  0  0  0  0
 20 21  1  0  0  0  0
M  END
> <ChemID>
100693

> <source_casrn>
140-11-4

> <CAS>
140-11-4

> <SMILES>
CC(=O)OCc1ccccc1

> <NAME>
Acetic acid, phenylmethyl ester

> <preferred_name>
Benzyl acetate

> <iupac>
benzyl acetate

> <MPID>
100702

> <dsstox_substance_id>
DTXSID0020151

> <Canonical_QSARr>
CC(=O)OCc1ccccc1

> <InChI_Code_QSARr>
InChI=1S/C9H10O2/c1-8(10)11-7-9-5-3-2-4-6-9/h2-6H,7H2,1H3

> <InChI Key_QSARr>
QUKGYYKBILRGFE-UHFFFAOYSA-N

> <Salt_Solvent>
?

> <Ready_Biodeg>
1.0

$$$$
100697
  -INDIGO-08031722522D

 72 71  0  0  0  0  0  0  0  0999 V2000
   -2.7712    0.0000    0.0000 C   0  0  0  0  0  0  0  0  0  0  0  0
   -1.3855   -0.8000    0.0000 C   0  0  0  0  0  0  0  0  0  0  0  0
   -0.7736   -2.2782    0.0000 H   0  0  0  0  0  0  0  0  0  0  0  0
   -1.9980   -2.2782    0.0000 H   0  0  0  0  0  0  0  0  0  0  0  0
    0.0003    0.0000    0.0000 C   0  0  0  0  0  0  0  0  0  0  0  0
   -0.6123    1.4782    0.0000 H   0  0  0  0  0  0  0  0  0  0  0  0
    0.6122    1.4782    0.0000 H   0  0  0  0  0  0  0  0  0  0  0  0
    1.3854   -0.8000    0.0000 C   0  0  0  0  0  0  0  0  0  0  0  0
    1.9979   -2.2782    0.0000 H   0  0  0  0  0  0  0  0  0  0  0  0
    0.7735   -2.2782    0.0000 H   0  0  0  0  0  0  0  0  0  0  0  0
    2.7711    0.0000    0.0000 C   0  0  0  0  0  0  0  0  0  0  0  0
    2.1592    1.4782    0.0000 H   0  0  0  0  0  0  0  0  0  0  0  0
    3.3837    1.4782    0.0000 H   0  0  0  0  0  0  0  0  0  0  0  0
    4.1569   -0.8000    0.0000 C   0  0  0  0  0  0  0  0  0  0  0  0
    5.5426    0.0000    0.0000 O   0  0  0  0  0  0  0  0  0  0  0  0
    6.9284   -0.8000    0.0000 C   0  0  0  0  0  0  0  0  0  0  0  0
    7.5403   -2.2782    0.0000 H   0  0  0  0  0  0  0  0  0  0  0  0
    6.3158   -2.2782    0.0000 H   0  0  0  0  0  0  0  0  0  0  0  0
    8.3141    0.0000    0.0000 C   0  0  0  0  0  0  0  0  0  0  0  0
    7.7016    1.4782    0.0000 H   0  0  0  0  0  0  0  0  0  0  0  0
    8.9261    1.4782    0.0000 H   0  0  0  0  0  0  0  0  0  0  0  0
    9.6993   -0.8000    0.0000 O   0  0  0  0  0  0  0  0  0  0  0  0
   11.0850    0.0000    0.0000 C   0  0  0  0  0  0  0  0  0  0  0  0
   10.4731    1.4782    0.0000 H   0  0  0  0  0  0  0  0  0  0  0  0
   11.6975    1.4782    0.0000 H   0  0  0  0  0  0  0  0  0  0  0  0
   12.4707   -0.8000    0.0000 C   0  0  0  0  0  0  0  0  0  0  0  0
   13.0833   -2.2782    0.0000 H   0  0  0  0  0  0  0  0  0  0  0  0
   11.8582   -2.2782    0.0000 H   0  0  0  0  0  0  0  0  0  0  0  0
   13.8565    0.0000    0.0000 O   0  0  0  0  0  0  0  0  0  0  0  0
   15.2422   -0.8000    0.0000 C   0  0  0  0  0  0  0  0  0  0  0  0
   15.8542   -2.2782    0.0000 H   0  0  0  0  0  0  0  0  0  0  0  0
   14.6297   -2.2782    0.0000 H   0  0  0  0  0  0  0  0  0  0  0  0
   16.6280    0.0000    0.0000 C   0  0  0  0  0  0  0  0  0  0  0  0
   16.0154    1.4782    0.0000 H   0  0  0  0  0  0  0  0  0  0  0  0
   17.2399    1.4782    0.0000 H   0  0  0  0  0  0  0  0  0  0  0  0
   18.0131   -0.8000    0.0000 C   0  0  0  0  0  0  0  0  0  0  0  0
   18.6257   -2.2782    0.0000 H   0  0  0  0  0  0  0  0  0  0  0  0
   17.4012   -2.2782    0.0000 H   0  0  0  0  0  0  0  0  0  0  0  0
   19.3989    0.0000    0.0000 C   0  0  0  0  0  0  0  0  0  0  0  0
   20.7846    0.8000    0.0000 H   0  0  0  0  0  0  0  0  0  0  0  0
   20.7846   -0.8000    0.0000 H   0  0  0  0  0  0  0  0  0  0  0  0
   19.3989    1.6000    0.0000 H   0  0  0  0  0  0  0  0  0  0  0  0
    4.1569   -2.4000    0.0000 O   0  0  0  0  0  0  0  0  0  0  0  0
   -4.1570   -0.8000    0.0000 O   0  0  0  0  0  0  0  0  0  0  0  0
   -5.5427    0.0000    0.0000 C   0  0  0  0  0  0  0  0  0  0  0  0
   -6.1547    1.4782    0.0000 H   0  0  0  0  0  0  0  0  0  0  0  0
   -4.9302    1.4782    0.0000 H   0  0  0  0  0  0  0  0  0  0  0  0
   -6.9285   -0.8000    0.0000 C   0  0  0  0  0  0  0  0  0  0  0  0
   -6.3159   -2.2782    0.0000 H   0  0  0  0  0  0  0  0  0  0  0  0
   -7.5404   -2.2782    0.0000 H   0  0  0  0  0  0  0  0  0  0  0  0
   -8.3136    0.0000    0.0000 O   0  0  0  0  0  0  0  0  0  0  0  0
   -9.6994   -0.8000    0.0000 C   0  0  0  0  0  0  0  0  0  0  0  0
   -9.0874   -2.2782    0.0000 H   0  0  0  0  0  0  0  0  0  0  0  0
  -10.3119   -2.2782    0.0000 H   0  0  0  0  0  0  0  0  0  0  0  0
  -11.0851    0.0000    0.0000 C   0  0  0  0  0  0  0  0  0  0  0  0
  -11.6977    1.4782    0.0000 H   0  0  0  0  0  0  0  0  0  0  0  0
  -10.4726    1.4782    0.0000 H   0  0  0  0  0  0  0  0  0  0  0  0
  -12.4709   -0.8000    0.0000 O   0  0  0  0  0  0  0  0  0  0  0  0
  -13.8566    0.0000    0.0000 C   0  0  0  0  0  0  0  0  0  0  0  0
  -14.4685    1.4782    0.0000 H   0  0  0  0  0  0  0  0  0  0  0  0
  -13.2440    1.4782    0.0000 H   0  0  0  0  0  0  0  0  0  0  0  0
  -15.2423   -0.8000    0.0000 C   0  0  0  0  0  0  0  0  0  0  0  0
  -14.6298   -2.2782    0.0000 H   0  0  0  0  0  0  0  0  0  0  0  0
  -15.8543   -2.2782    0.0000 H   0  0  0  0  0  0  0  0  0  0  0  0
  -16.6275    0.0000    0.0000 C   0  0  0  0  0  0  0  0  0  0  0  0
  -17.2400    1.4782    0.0000 H   0  0  0  0  0  0  0  0  0  0  0  0
  -16.0155    1.4782    0.0000 H   0  0  0  0  0  0  0  0  0  0  0  0
  -18.0132   -0.8000    0.0000 C   0  0  0  0  0  0  0  0  0  0  0  0
  -19.3990   -1.6000    0.0000 H   0  0  0  0  0  0  0  0  0  0  0  0
  -19.3990    0.0000    0.0000 H   0  0  0  0  0  0  0  0  0  0  0  0
  -18.0132   -2.4000    0.0000 H   0  0  0  0  0  0  0  0  0  0  0  0
   -2.7712    1.6000    0.0000 O   0  0  0  0  0  0  0  0  0  0  0  0
  1  2  1  0  0  0  0
  2  3  1  0  0  0  0
  2  4  1  0  0  0  0
  2  5  1  0  0  0  0
  5  6  1  0  0  0  0
  5  7  1  0  0  0  0
  5  8  1  0  0  0  0
  8  9  1  0  0  0  0
  8 10  1  0  0  0  0
  8 11  1  0  0  0  0
 11 12  1  0  0  0  0
 11 13  1  0  0  0  0
 11 14  1  0  0  0  0
 14 15  1  0  0  0  0
 15 16  1  0  0  0  0
 16 17  1  0  0  0  0
 16 18  1  0  0  0  0
 16 19  1  0  0  0  0
 19 20  1  0  0  0  0
 19 21  1  0  0  0  0
 19 22  1  0  0  0  0
 22 23  1  0  0  0  0
 23 24  1  0  0  0  0
 23 25  1  0  0  0  0
 23 26  1  0  0  0  0
 26 27  1  0  0  0  0
 26 28  1  0  0  0  0
 26 29  1  0  0  0  0
 29 30  1  0  0  0  0
 30 31  1  0  0  0  0
 30 32  1  0  0  0  0
 30 33  1  0  0  0  0
 33 34  1  0  0  0  0
 33 35  1  0  0  0  0
 33 36  1  0  0  0  0
 36 37  1  0  0  0  0
 36 38  1  0  0  0  0
 36 39  1  0  0  0  0
 39 40  1  0  0  0  0
 39 41  1  0  0  0  0
 39 42  1  0  0  0  0
 14 43  2  0  0  0  0
  1 44  1  0  0  0  0
 44 45  1  0  0  0  0
 45 46  1  0  0  0  0
 45 47  1  0  0  0  0
 45 48  1  0  0  0  0
 48 49  1  0  0  0  0
 48 50  1  0  0  0  0
 48 51  1  0  0  0  0
 51 52  1  0  0  0  0
 52 53  1  0  0  0  0
 52 54  1  0  0  0  0
 52 55  1  0  0  0  0
 55 56  1  0  0  0  0
 55 57  1  0  0  0  0
 55 58  1  0  0  0  0
 58 59  1  0  0  0  0
 59 60  1  0  0  0  0
 59 61  1  0  0  0  0
 59 62  1  0  0  0  0
 62 63  1  0  0  0  0
 62 64  1  0  0  0  0
 62 65  1  0  0  0  0
 65 66  1  0  0  0  0
 65 67  1  0  0  0  0
 65 68  1  0  0  0  0
 68 69  1  0  0  0  0
 68 70  1  0  0  0  0
 68 71  1  0  0  0  0
  1 72  2  0  0  0  0
M  END
> <ChemID>
100697

> <source_casrn>
141-17-3

> <CAS>
141-17-3

> <SMILES>
O=C(OCCOCCOCCCC)CCCCC(=O)OCCOCCOCCCC

> <NAME>
Hexanedioic acid, bis 2-(2-butoxyethoxy)ethyl  ester

> <preferred_name>
Bis[2-(2-butoxyethoxy)ethyl] hexandioate

> <iupac>
bis[2-(2-butoxyethoxy)ethyl] hexanedioate

> <MPID>
100706

> <dsstox_substance_id>
DTXSID3027085

> <Canonical_QSARr>
CCCCOCCOCCOC(=O)CCCCC(=O)OCCOCCOCCCC

> <InChI_Code_QSARr>
InChI=1S/C22H42O8/c1-3-5-11-25-13-15-27-17-19-29-21(23)9-7-8-10-22(24)30-20-18-28-16-14-26-12-6-4-2/h3-20H2,1-2H3

> <InChI Key_QSARr>
SCABKEBYDRTODC-UHFFFAOYSA-N

> <Salt_Solvent>
?

> <Ready_Biodeg>
1.0

$$$$
100701
  -INDIGO-08031722522D

 11 10  0  0  0  0  0  0  0  0999 V2000
    1.3856    2.4000    0.0000 O   0  0  0  0  0  0  0  0  0  0  0  0
    1.3856    0.8000    0.0000 C   0  0  0  0  0  0  0  0  0  0  0  0
    2.7713    0.0000    0.0000 O   0  0  0  0  0  0  0  0  0  0  0  0
    4.1569    0.8000    0.0000 H   0  0  0  0  0  0  0  0  0  0  0  0
    0.0001    0.0000    0.0000 C   0  0  0  0  0  0  0  0  0  0  0  0
    0.6123   -1.4782    0.0000 H   0  0  0  0  0  0  0  0  0  0  0  0
   -0.6123   -1.4782    0.0000 H   0  0  0  0  0  0  0  0  0  0  0  0
   -1.3856    0.8000    0.0000 C   0  0  0  0  0  0  0  0  0  0  0  0
   -2.7713    0.0000    0.0000 O   0  0  0  0  0  0  0  0  0  0  0  0
   -4.1569    0.8000    0.0000 H   0  0  0  0  0  0  0  0  0  0  0  0
   -1.3856    2.4000    0.0000 O   0  0  0  0  0  0  0  0  0  0  0  0
  1  2  2  0  0  0  0
  2  3  1  0  0  0  0
  3  4  1  0  0  0  0
  2  5  1  0  0  0  0
  5  6  1  0  0  0  0
  5  7  1  0  0  0  0
  5  8  1  0  0  0  0
  8  9  1  0  0  0  0
  9 10  1  0  0  0  0
  8 11  2  0  0  0  0
M  END
> <ChemID>
100701

> <source_casrn>
141-82-2

> <CAS>
141-82-2

> <SMILES>
OC(=O)CC(O)=O

> <NAME>
MALONIC ACID

> <preferred_name>
Propanedioic acid

> <iupac>
propanedioic acid

> <MPID>
100710

> <dsstox_substance_id>
DTXSID7021659

> <Canonical_QSARr>
OC(=O)CC(O)=O

> <InChI_Code_QSARr>
InChI=1S/C3H4O4/c4-2(5)1-3(6)7/h1H2,(H,4,5)(H,6,7)

> <InChI Key_QSARr>
OFOBLEOULBTSOW-UHFFFAOYSA-N

> <Salt_Solvent>
?

> <Ready_Biodeg>
1.0

$$$$
100707
  -INDIGO-08031722522D

 13 13  0  0  0  0  0  0  0  0999 V2000
    2.0944    1.5217    0.0000 C   0  0  0  0  0  0  0  0  0  0  0  0
    3.0349    2.8161    0.0000 H   0  0  0  0  0  0  0  0  0  0  0  0
    2.5888    0.0000    0.0000 C   0  0  0  0  0  0  0  0  0  0  0  0
    4.1105   -0.4944    0.0000 H   0  0  0  0  0  0  0  0  0  0  0  0
    1.2945   -0.9405    0.0000 C   0  0  0  0  0  0  0  0  0  0  0  0
    2.3650   -2.1295    0.0000 H   0  0  0  0  0  0  0  0  0  0  0  0
    0.2238   -2.1295    0.0000 H   0  0  0  0  0  0  0  0  0  0  0  0
    0.0000    0.0000    0.0000 C   0  0  0  0  0  0  0  0  0  0  0  0
   -0.8000   -1.3856    0.0000 H   0  0  0  0  0  0  0  0  0  0  0  0
   -1.4617    0.6508    0.0000 H   0  0  0  0  0  0  0  0  0  0  0  0
    0.4944    1.5217    0.0000 C   0  0  0  0  0  0  0  0  0  0  0  0
   -1.0706    1.8544    0.0000 H   0  0  0  0  0  0  0  0  0  0  0  0
    0.6617    3.1129    0.0000 H   0  0  0  0  0  0  0  0  0  0  0  0
  1  2  1  0  0  0  0
  1  3  2  0  0  0  0
  3  4  1  0  0  0  0
  3  5  1  0  0  0  0
  5  6  1  0  0  0  0
  5  7  1  0  0  0  0
  5  8  1  0  0  0  0
  8  9  1  0  0  0  0
  8 10  1  0  0  0  0
  8 11  1  0  0  0  0
 11  1  1  0  0  0  0
 11 12  1  0  0  0  0
 11 13  1  0  0  0  0
M  END
> <ChemID>
100707

> <source_casrn>
142-29-0

> <CAS>
142-29-0

> <SMILES>
C1CCC=C1

> <NAME>
Cyclopentene

> <preferred_name>
Cyclopentene

> <iupac>
cyclopentene

> <MPID>
100716

> <dsstox_substance_id>
DTXSID6029171

> <Canonical_QSARr>
C1CCC=C1

> <InChI_Code_QSARr>
InChI=1S/C5H8/c1-2-4-5-3-1/h1-2H,3-5H2

> <InChI Key_QSARr>
LPIQUOYDBNQMRZ-UHFFFAOYSA-N

> <Salt_Solvent>
?

> <Ready_Biodeg>
1.0

$$$$
100711
  -INDIGO-08031722522D

 22 21  0  0  0  0  0  0  0  0999 V2000
   -1.3856    0.8000    0.0000 N   0  0  0  0  0  0  0  0  0  0  0  0
   -1.3857    2.4000    0.0000 H   0  0  0  0  0  0  0  0  0  0  0  0
   -2.7712    0.0000    0.0000 C   0  0  0  0  0  0  0  0  0  0  0  0
   -2.1591   -1.4782    0.0000 H   0  0  0  0  0  0  0  0  0  0  0  0
   -3.3835   -1.4782    0.0000 H   0  0  0  0  0  0  0  0  0  0  0  0
   -4.1569    0.8000    0.0000 C   0  0  0  0  0  0  0  0  0  0  0  0
   -4.7692    2.2782    0.0000 H   0  0  0  0  0  0  0  0  0  0  0  0
   -3.5446    2.2782    0.0000 H   0  0  0  0  0  0  0  0  0  0  0  0
   -5.5425    0.0000    0.0000 C   0  0  0  0  0  0  0  0  0  0  0  0
   -6.9282   -0.8000    0.0000 H   0  0  0  0  0  0  0  0  0  0  0  0
   -6.9282    0.8000    0.0000 H   0  0  0  0  0  0  0  0  0  0  0  0
   -5.5425   -1.6000    0.0000 H   0  0  0  0  0  0  0  0  0  0  0  0
   -0.0001    0.0000    0.0000 C   0  0  0  0  0  0  0  0  0  0  0  0
    0.6123   -1.4782    0.0000 H   0  0  0  0  0  0  0  0  0  0  0  0
   -0.6122   -1.4782    0.0000 H   0  0  0  0  0  0  0  0  0  0  0  0
    1.3856    0.8000    0.0000 C   0  0  0  0  0  0  0  0  0  0  0  0
    0.7733    2.2782    0.0000 H   0  0  0  0  0  0  0  0  0  0  0  0
    1.9979    2.2782    0.0000 H   0  0  0  0  0  0  0  0  0  0  0  0
    2.7713    0.0000    0.0000 C   0  0  0  0  0  0  0  0  0  0  0  0
    4.1569   -0.8000    0.0000 H   0  0  0  0  0  0  0  0  0  0  0  0
    4.1569    0.8000    0.0000 H   0  0  0  0  0  0  0  0  0  0  0  0
    2.7713   -1.6000    0.0000 H   0  0  0  0  0  0  0  0  0  0  0  0
  1  2  1  0  0  0  0
  1  3  1  0  0  0  0
  3  4  1  0  0  0  0
  3  5  1  0  0  0  0
  3  6  1  0  0  0  0
  6  7  1  0  0  0  0
  6  8  1  0  0  0  0
  6  9  1  0  0  0  0
  9 10  1  0  0  0  0
  9 11  1  0  0  0  0
  9 12  1  0  0  0  0
  1 13  1  0  0  0  0
 13 14  1  0  0  0  0
 13 15  1  0  0  0  0
 13 16  1  0  0  0  0
 16 17  1  0  0  0  0
 16 18  1  0  0  0  0
 16 19  1  0  0  0  0
 19 20  1  0  0  0  0
 19 21  1  0  0  0  0
 19 22  1  0  0  0  0
M  END
> <ChemID>
100711

> <source_casrn>
142-84-7

> <CAS>
142-84-7

> <SMILES>
CCCNCCC

> <NAME>
1-Propanamine, N-propyl-

> <preferred_name>
Dipropylamine

> <iupac>
N-propylpropan-1-amine

> <MPID>
100720

> <dsstox_substance_id>
DTXSID2025185

> <Canonical_QSARr>
CCCNCCC

> <InChI_Code_QSARr>
InChI=1S/C6H15N/c1-3-5-7-6-4-2/h7H,3-6H2,1-2H3

> <InChI Key_QSARr>
WEHWNAOGRSTTBQ-UHFFFAOYSA-N

> <Salt_Solvent>
?

> <Ready_Biodeg>
1.0

$$$$
100715
  -INDIGO-08031722522D

 28 27  0  0  0  0  0  0  0  0999 V2000
    1.6001   -0.0000    0.0000 C   0  0  0  0  0  0  0  0  0  0  0  0
    2.8694   -0.9740    0.0000 H   0  0  0  0  0  0  0  0  0  0  0  0
    1.8089   -1.5863    0.0000 H   0  0  0  0  0  0  0  0  0  0  0  0
    0.0000    0.0000    0.0000 C   0  0  0  0  0  0  0  0  0  0  0  0
   -1.6000    0.0000    0.0000 C   0  0  0  0  0  0  0  0  0  0  0  0
   -1.6000    1.6000    0.0000 H   0  0  0  0  0  0  0  0  0  0  0  0
   -3.1999    0.0000    0.0000 C   0  0  0  0  0  0  0  0  0  0  0  0
   -3.1999   -1.6000    0.0000 H   0  0  0  0  0  0  0  0  0  0  0  0
   -4.7757   -0.2779    0.0000 C   0  0  0  0  0  0  0  0  0  0  0  0
   -6.3514   -0.5557    0.0000 H   0  0  0  0  0  0  0  0  0  0  0  0
   -5.8041    0.9478    0.0000 H   0  0  0  0  0  0  0  0  0  0  0  0
   -5.3230   -1.7813    0.0000 H   0  0  0  0  0  0  0  0  0  0  0  0
   -3.1999    1.6000    0.0000 C   0  0  0  0  0  0  0  0  0  0  0  0
   -3.1999    3.2000    0.0000 H   0  0  0  0  0  0  0  0  0  0  0  0
   -4.5856    2.4000    0.0000 H   0  0  0  0  0  0  0  0  0  0  0  0
   -4.5856    0.8000    0.0000 H   0  0  0  0  0  0  0  0  0  0  0  0
   -1.6000   -1.6000    0.0000 O   0  0  0  0  0  0  0  0  0  0  0  0
   -2.8257   -2.6285    0.0000 H   0  0  0  0  0  0  0  0  0  0  0  0
    0.0000    1.6000    0.0000 C   0  0  0  0  0  0  0  0  0  0  0  0
    0.0000    3.2000    0.0000 H   0  0  0  0  0  0  0  0  0  0  0  0
    1.3856    2.4000    0.0000 H   0  0  0  0  0  0  0  0  0  0  0  0
   -1.2257    2.6285    0.0000 H   0  0  0  0  0  0  0  0  0  0  0  0
    0.0000   -1.6000    0.0000 C   0  0  0  0  0  0  0  0  0  0  0  0
    0.0000   -3.2000    0.0000 H   0  0  0  0  0  0  0  0  0  0  0  0
    1.2257   -2.6285    0.0000 H   0  0  0  0  0  0  0  0  0  0  0  0
   -1.2257   -2.6285    0.0000 H   0  0  0  0  0  0  0  0  0  0  0  0
    2.3999    1.3856    0.0000 O   0  0  0  0  0  0  0  0  0  0  0  0
    4.0000    1.3856    0.0000 H   0  0  0  0  0  0  0  0  0  0  0  0
  1  2  1  0  0  0  0
  1  3  1  0  0  0  0
  1  4  1  0  0  0  0
  4  5  1  0  0  0  0
  5  6  1  0  0  0  0
  5  7  1  0  0  0  0
  7  8  1  0  0  0  0
  7  9  1  0  0  0  0
  9 10  1  0  0  0  0
  9 11  1  0  0  0  0
  9 12  1  0  0  0  0
  7 13  1  0  0  0  0
 13 14  1  0  0  0  0
 13 15  1  0  0  0  0
 13 16  1  0  0  0  0
  5 17  1  0  0  0  0
 17 18  1  0  0  0  0
  4 19  1  0  0  0  0
 19 20  1  0  0  0  0
 19 21  1  0  0  0  0
 19 22  1  0  0  0  0
  4 23  1  0  0  0  0
 23 24  1  0  0  0  0
 23 25  1  0  0  0  0
 23 26  1  0  0  0  0
  1 27  1  0  0  0  0
 27 28  1  0  0  0  0
M  END
> <ChemID>
100715

> <source_casrn>
144-19-4

> <CAS>
144-19-4

> <SMILES>
CC(C)C(O)C(C)(C)CO

> <NAME>
1,3-Pentanediol, 2,2,4-trimethyl-

> <preferred_name>
2,2,4-Trimethyl-1,3-pentanediol

> <iupac>
2,2,4-trimethylpentane-1,3-diol

> <MPID>
100724

> <dsstox_substance_id>
DTXSID8027113

> <Canonical_QSARr>
CC(C)C(O)C(C)(C)CO

> <InChI_Code_QSARr>
InChI=1S/C8H18O2/c1-6(2)7(10)8(3,4)5-9/h6-7,9-10H,5H2,1-4H3

> <InChI Key_QSARr>
JCTXKRPTIMZBJT-UHFFFAOYSA-N

> <Salt_Solvent>
?

> <Ready_Biodeg>
1.0

$$$$
100719
  -INDIGO-08031722522D

 17 17  0  0  0  0  0  0  0  0999 V2000
    3.2001    2.7713    0.0000 O   0  0  0  0  0  0  0  0  0  0  0  0
    4.8000    2.7713    0.0000 H   0  0  0  0  0  0  0  0  0  0  0  0
    2.4000    1.3856    0.0000 C   0  0  0  0  0  0  0  0  0  0  0  0
    0.8000    1.3856    0.0000 C   0  0  0  0  0  0  0  0  0  0  0  0
    0.0000    2.7713    0.0000 H   0  0  0  0  0  0  0  0  0  0  0  0
    0.0000    0.0000    0.0000 C   0  0  0  0  0  0  0  0  0  0  0  0
   -1.6000    0.0000    0.0000 O   0  0  0  0  0  0  0  0  0  0  0  0
   -2.4001   -1.3856    0.0000 C   0  0  0  0  0  0  0  0  0  0  0  0
   -4.0000   -1.3856    0.0000 H   0  0  0  0  0  0  0  0  0  0  0  0
   -3.2000   -2.7713    0.0000 H   0  0  0  0  0  0  0  0  0  0  0  0
   -3.2000    0.0000    0.0000 H   0  0  0  0  0  0  0  0  0  0  0  0
    0.8000   -1.3856    0.0000 C   0  0  0  0  0  0  0  0  0  0  0  0
    0.0000   -2.7713    0.0000 H   0  0  0  0  0  0  0  0  0  0  0  0
    2.4000   -1.3856    0.0000 C   0  0  0  0  0  0  0  0  0  0  0  0
    3.2001   -2.7713    0.0000 H   0  0  0  0  0  0  0  0  0  0  0  0
    3.2001   -0.0000    0.0000 C   0  0  0  0  0  0  0  0  0  0  0  0
    4.8000    0.0000    0.0000 H   0  0  0  0  0  0  0  0  0  0  0  0
  1  2  1  0  0  0  0
  1  3  1  0  0  0  0
  3  4  1  0  0  0  0
  4  5  1  0  0  0  0
  4  6  2  0  0  0  0
  6  7  1  0  0  0  0
  7  8  1  0  0  0  0
  8  9  1  0  0  0  0
  8 10  1  0  0  0  0
  8 11  1  0  0  0  0
  6 12  1  0  0  0  0
 12 13  1  0  0  0  0
 12 14  2  0  0  0  0
 14 15  1  0  0  0  0
 14 16  1  0  0  0  0
 16  3  2  0  0  0  0
 16 17  1  0  0  0  0
M  END
> <ChemID>
100719

> <source_casrn>
150-19-6

> <CAS>
150-19-6

> <SMILES>
COc1cccc(O)c1

> <NAME>
3-Methoxyphenol

> <preferred_name>
3-Methoxyphenol

> <iupac>
3-methoxyphenol

> <MPID>
100728

> <dsstox_substance_id>
DTXSID0022012

> <Canonical_QSARr>
COc1cccc(O)c1

> <InChI_Code_QSARr>
InChI=1S/C7H8O2/c1-9-7-4-2-3-6(8)5-7/h2-5,8H,1H3

> <InChI Key_QSARr>
ASHGTJPOSUFTGB-UHFFFAOYSA-N

> <Salt_Solvent>
?

> <Ready_Biodeg>
1.0

$$$$
100723
  -INDIGO-08031722522D

 43 42  0  0  0  0  0  0  0  0999 V2000
    9.6994    0.8000    0.0000 S   0  0  0  0  0  0  0  0  0  0  0  0
   10.4995   -0.5856    0.0000 O   0  0  0  0  0  0  0  0  0  0  0  0
    8.8994    2.1857    0.0000 O   0  0  0  0  0  0  0  0  0  0  0  0
   11.0851    1.6000    0.0000 O   0  0  0  0  0  0  0  0  0  0  0  0
   12.4708    0.8000    0.0000 H   0  0  0  0  0  0  0  0  0  0  0  0
    8.3138   -0.0000    0.0000 O   0  0  0  0  0  0  0  0  0  0  0  0
    6.9281    0.8000    0.0000 C   0  0  0  0  0  0  0  0  0  0  0  0
    7.5404    2.2782    0.0000 H   0  0  0  0  0  0  0  0  0  0  0  0
    6.3158    2.2782    0.0000 H   0  0  0  0  0  0  0  0  0  0  0  0
    5.5425   -0.0000    0.0000 C   0  0  0  0  0  0  0  0  0  0  0  0
    4.9301   -1.4782    0.0000 H   0  0  0  0  0  0  0  0  0  0  0  0
    6.1548   -1.4782    0.0000 H   0  0  0  0  0  0  0  0  0  0  0  0
    4.1568    0.8000    0.0000 C   0  0  0  0  0  0  0  0  0  0  0  0
    4.7691    2.2782    0.0000 H   0  0  0  0  0  0  0  0  0  0  0  0
    3.5445    2.2782    0.0000 H   0  0  0  0  0  0  0  0  0  0  0  0
    2.7711   -0.0000    0.0000 C   0  0  0  0  0  0  0  0  0  0  0  0
    2.1592   -1.4782    0.0000 H   0  0  0  0  0  0  0  0  0  0  0  0
    3.3834   -1.4782    0.0000 H   0  0  0  0  0  0  0  0  0  0  0  0
    1.3858    0.8000    0.0000 C   0  0  0  0  0  0  0  0  0  0  0  0
    1.9978    2.2782    0.0000 H   0  0  0  0  0  0  0  0  0  0  0  0
    0.7735    2.2782    0.0000 H   0  0  0  0  0  0  0  0  0  0  0  0
    0.0001   -0.0000    0.0000 C   0  0  0  0  0  0  0  0  0  0  0  0
   -0.6122   -1.4782    0.0000 H   0  0  0  0  0  0  0  0  0  0  0  0
    0.6121   -1.4782    0.0000 H   0  0  0  0  0  0  0  0  0  0  0  0
   -1.3855    0.8000    0.0000 C   0  0  0  0  0  0  0  0  0  0  0  0
   -0.7732    2.2782    0.0000 H   0  0  0  0  0  0  0  0  0  0  0  0
   -1.9978    2.2782    0.0000 H   0  0  0  0  0  0  0  0  0  0  0  0
   -2.7712   -0.0000    0.0000 C   0  0  0  0  0  0  0  0  0  0  0  0
   -3.3835   -1.4782    0.0000 H   0  0  0  0  0  0  0  0  0  0  0  0
   -2.1589   -1.4782    0.0000 H   0  0  0  0  0  0  0  0  0  0  0  0
   -4.1568    0.8000    0.0000 C   0  0  0  0  0  0  0  0  0  0  0  0
   -3.5445    2.2782    0.0000 H   0  0  0  0  0  0  0  0  0  0  0  0
   -4.7692    2.2782    0.0000 H   0  0  0  0  0  0  0  0  0  0  0  0
   -5.5425   -0.0000    0.0000 C   0  0  0  0  0  0  0  0  0  0  0  0
   -6.1548   -1.4782    0.0000 H   0  0  0  0  0  0  0  0  0  0  0  0
   -4.9302   -1.4782    0.0000 H   0  0  0  0  0  0  0  0  0  0  0  0
   -6.9282    0.8000    0.0000 C   0  0  0  0  0  0  0  0  0  0  0  0
   -6.3158    2.2782    0.0000 H   0  0  0  0  0  0  0  0  0  0  0  0
   -7.5405    2.2782    0.0000 H   0  0  0  0  0  0  0  0  0  0  0  0
   -8.3138   -0.0000    0.0000 C   0  0  0  0  0  0  0  0  0  0  0  0
   -9.6995   -0.8000    0.0000 H   0  0  0  0  0  0  0  0  0  0  0  0
   -9.6995    0.8000    0.0000 H   0  0  0  0  0  0  0  0  0  0  0  0
   -8.3138   -1.6000    0.0000 H   0  0  0  0  0  0  0  0  0  0  0  0
  1  2  2  0  0  0  0
  1  3  2  0  0  0  0
  1  4  1  0  0  0  0
  4  5  1  0  0  0  0
  1  6  1  0  0  0  0
  6  7  1  0  0  0  0
  7  8  1  0  0  0  0
  7  9  1  0  0  0  0
  7 10  1  0  0  0  0
 10 11  1  0  0  0  0
 10 12  1  0  0  0  0
 10 13  1  0  0  0  0
 13 14  1  0  0  0  0
 13 15  1  0  0  0  0
 13 16  1  0  0  0  0
 16 17  1  0  0  0  0
 16 18  1  0  0  0  0
 16 19  1  0  0  0  0
 19 20  1  0  0  0  0
 19 21  1  0  0  0  0
 19 22  1  0  0  0  0
 22 23  1  0  0  0  0
 22 24  1  0  0  0  0
 22 25  1  0  0  0  0
 25 26  1  0  0  0  0
 25 27  1  0  0  0  0
 25 28  1  0  0  0  0
 28 29  1  0  0  0  0
 28 30  1  0  0  0  0
 28 31  1  0  0  0  0
 31 32  1  0  0  0  0
 31 33  1  0  0  0  0
 31 34  1  0  0  0  0
 34 35  1  0  0  0  0
 34 36  1  0  0  0  0
 34 37  1  0  0  0  0
 37 38  1  0  0  0  0
 37 39  1  0  0  0  0
 37 40  1  0  0  0  0
 40 41  1  0  0  0  0
 40 42  1  0  0  0  0
 40 43  1  0  0  0  0
M  END
> <ChemID>
100723

> <source_casrn>
151-41-7

> <CAS>
151-41-7

> <SMILES>
O=S(=O)(OCCCCCCCCCCCC)O

> <NAME>
C12 Alkyl sulfate

> <preferred_name>
Lauryl sulfate

> <iupac>
dodecyl hydrogen sulfate

> <MPID>
100732

> <dsstox_substance_id>
DTXSID0042088

> <Canonical_QSARr>
CCCCCCCCCCCCOS(O)(=O)=O

> <InChI_Code_QSARr>
InChI=1S/C12H26O4S/c1-2-3-4-5-6-7-8-9-10-11-12-16-17(13,14)15/h2-12H2,1H3,(H,13,14,15)

> <InChI Key_QSARr>
MOTZDAYCYVMXPC-UHFFFAOYSA-N

> <Salt_Solvent>
?

> <Ready_Biodeg>
1.0

$$$$
100727
  -INDIGO-08031722522D

 32 36  0  0  0  0  0  0  0  0999 V2000
    2.4001    1.3856    0.0000 C   0  0  0  0  0  0  0  0  0  0  0  0
    3.2001    0.0001    0.0000 C   0  0  0  0  0  0  0  0  0  0  0  0
    4.8000    0.0001    0.0000 C   0  0  0  0  0  0  0  0  0  0  0  0
    5.6000   -1.3856    0.0000 C   0  0  0  0  0  0  0  0  0  0  0  0
    7.2000   -1.3856    0.0000 H   0  0  0  0  0  0  0  0  0  0  0  0
    4.8000   -2.7712    0.0000 C   0  0  0  0  0  0  0  0  0  0  0  0
    5.6000   -4.1569    0.0000 H   0  0  0  0  0  0  0  0  0  0  0  0
    3.2001   -2.7712    0.0000 C   0  0  0  0  0  0  0  0  0  0  0  0
    2.4001   -4.1569    0.0000 H   0  0  0  0  0  0  0  0  0  0  0  0
    2.4001   -1.3856    0.0000 C   0  0  0  0  0  0  0  0  0  0  0  0
    0.7999   -1.3856    0.0000 C   0  0  0  0  0  0  0  0  0  0  0  0
   -0.0001   -2.7712    0.0000 C   0  0  0  0  0  0  0  0  0  0  0  0
    0.7999   -4.1569    0.0000 H   0  0  0  0  0  0  0  0  0  0  0  0
   -1.6000   -2.7712    0.0000 C   0  0  0  0  0  0  0  0  0  0  0  0
   -2.4000   -4.1569    0.0000 H   0  0  0  0  0  0  0  0  0  0  0  0
   -2.4000   -1.3856    0.0000 C   0  0  0  0  0  0  0  0  0  0  0  0
   -4.0000   -1.3856    0.0000 H   0  0  0  0  0  0  0  0  0  0  0  0
   -1.6000    0.0001    0.0000 C   0  0  0  0  0  0  0  0  0  0  0  0
   -2.4000    1.3856    0.0000 C   0  0  0  0  0  0  0  0  0  0  0  0
   -4.0000    1.3856    0.0000 H   0  0  0  0  0  0  0  0  0  0  0  0
   -1.6000    2.7712    0.0000 C   0  0  0  0  0  0  0  0  0  0  0  0
   -2.4000    4.1569    0.0000 H   0  0  0  0  0  0  0  0  0  0  0  0
   -0.0001    2.7713    0.0000 C   0  0  0  0  0  0  0  0  0  0  0  0
    0.7999    4.1569    0.0000 H   0  0  0  0  0  0  0  0  0  0  0  0
    0.7999    1.3856    0.0000 C   0  0  0  0  0  0  0  0  0  0  0  0
   -0.0001    0.0001    0.0000 C   0  0  0  0  0  0  0  0  0  0  0  0
    5.6000    1.3856    0.0000 C   0  0  0  0  0  0  0  0  0  0  0  0
    7.2000    1.3856    0.0000 H   0  0  0  0  0  0  0  0  0  0  0  0
    4.8000    2.7712    0.0000 C   0  0  0  0  0  0  0  0  0  0  0  0
    5.6000    4.1569    0.0000 H   0  0  0  0  0  0  0  0  0  0  0  0
    3.2001    2.7713    0.0000 C   0  0  0  0  0  0  0  0  0  0  0  0
    2.4001    4.1569    0.0000 H   0  0  0  0  0  0  0  0  0  0  0  0
  1  2  2  0  0  0  0
  2  3  1  0  0  0  0
  3  4  1  0  0  0  0
  4  5  1  0  0  0  0
  4  6  2  0  0  0  0
  6  7  1  0  0  0  0
  6  8  1  0  0  0  0
  8  9  1  0  0  0  0
  8 10  2  0  0  0  0
 10  2  1  0  0  0  0
 10 11  1  0  0  0  0
 11 12  1  0  0  0  0
 12 13  1  0  0  0  0
 12 14  2  0  0  0  0
 14 15  1  0  0  0  0
 14 16  1  0  0  0  0
 16 17  1  0  0  0  0
 16 18  2  0  0  0  0
 18 19  1  0  0  0  0
 19 20  1  0  0  0  0
 19 21  2  0  0  0  0
 21 22  1  0  0  0  0
 21 23  1  0  0  0  0
 23 24  1  0  0  0  0
 23 25  2  0  0  0  0
 25  1  1  0  0  0  0
 25 26  1  0  0  0  0
 26 11  2  0  0  0  0
 26 18  1  0  0  0  0
  3 27  2  0  0  0  0
 27 28  1  0  0  0  0
 27 29  1  0  0  0  0
 29 30  1  0  0  0  0
 29 31  2  0  0  0  0
 31  1  1  0  0  0  0
 31 32  1  0  0  0  0
M  END
> <ChemID>
100727

> <source_casrn>
198-55-0

> <CAS>
198-55-0

> <SMILES>
c1ccc2c3c(cccc31)c1cccc3cccc2c31

> <NAME>
PERYLENE

> <preferred_name>
Perylene

> <iupac>
perylene

> <MPID>
100736

> <dsstox_substance_id>
DTXSID4047753

> <Canonical_QSARr>
c1ccc2c3c(cccc31)c1cccc3cccc2c31

> <InChI_Code_QSARr>
InChI=1S/C20H12/c1-5-13-6-2-11-17-18-12-4-8-14-7-3-10-16(20(14)18)15(9-1)19(13)17/h1-12H

> <InChI Key_QSARr>
CSHWQDPOILHKBI-UHFFFAOYSA-N

> <Salt_Solvent>
?

> <Ready_Biodeg>
0.0

$$$$
100731
  -INDIGO-08031722522D

 18 19  0  0  0  0  0  0  0  0999 V2000
   -0.0000   -0.0000    0.0000 C   0  0  0  0  0  0  0  0  0  0  0  0
    1.5217    0.4945    0.0000 C   0  0  0  0  0  0  0  0  0  0  0  0
    2.0161    2.0162    0.0000 H   0  0  0  0  0  0  0  0  0  0  0  0
    2.4622   -0.7999    0.0000 C   0  0  0  0  0  0  0  0  0  0  0  0
    4.0621   -0.8001    0.0000 H   0  0  0  0  0  0  0  0  0  0  0  0
    1.5217   -2.0945    0.0000 C   0  0  0  0  0  0  0  0  0  0  0  0
    2.0161   -3.6162    0.0000 H   0  0  0  0  0  0  0  0  0  0  0  0
   -0.0000   -1.6000    0.0000 C   0  0  0  0  0  0  0  0  0  0  0  0
   -1.2510   -2.5976    0.0000 C   0  0  0  0  0  0  0  0  0  0  0  0
   -0.8949   -4.1575    0.0000 H   0  0  0  0  0  0  0  0  0  0  0  0
   -2.8108   -2.2415    0.0000 C   0  0  0  0  0  0  0  0  0  0  0  0
   -3.8085   -3.4925    0.0000 H   0  0  0  0  0  0  0  0  0  0  0  0
   -3.5051   -0.8001    0.0000 C   0  0  0  0  0  0  0  0  0  0  0  0
   -5.1050   -0.8001    0.0000 H   0  0  0  0  0  0  0  0  0  0  0  0
   -2.8108    0.6415    0.0000 C   0  0  0  0  0  0  0  0  0  0  0  0
   -3.8085    1.8925    0.0000 H   0  0  0  0  0  0  0  0  0  0  0  0
   -1.2510    0.9976    0.0000 C   0  0  0  0  0  0  0  0  0  0  0  0
   -0.8949    2.5575    0.0000 H   0  0  0  0  0  0  0  0  0  0  0  0
  1  2  1  0  0  0  0
  2  3  1  0  0  0  0
  2  4  2  0  0  0  0
  4  5  1  0  0  0  0
  4  6  1  0  0  0  0
  6  7  1  0  0  0  0
  6  8  2  0  0  0  0
  8  1  1  0  0  0  0
  8  9  1  0  0  0  0
  9 10  1  0  0  0  0
  9 11  2  0  0  0  0
 11 12  1  0  0  0  0
 11 13  1  0  0  0  0
 13 14  1  0  0  0  0
 13 15  2  0  0  0  0
 15 16  1  0  0  0  0
 15 17  1  0  0  0  0
 17  1  2  0  0  0  0
 17 18  1  0  0  0  0
M  END
> <ChemID>
100731

> <source_casrn>
275-51-4

> <CAS>
275-51-4

> <SMILES>
c1:c:c:c2:c:c:c:c:c:c-2:1

> <NAME>
Azulene

> <preferred_name>
Azulene

> <iupac>
AZULENE

> <MPID>
100740

> <dsstox_substance_id>
DTXSID2059770

> <Canonical_QSARr>
c1ccc2cccccc21

> <InChI_Code_QSARr>
InChI=1S/C10H8/c1-2-5-9-7-4-8-10(9)6-3-1/h1-8H

> <InChI Key_QSARr>
CUFNKYGDVFVPHO-UHFFFAOYSA-N

> <Salt_Solvent>
?

> <Ready_Biodeg>
0.0

$$$$
100735
  -INDIGO-08031722522D

 20 19  0  0  0  0  0  0  0  0999 V2000
    0.0001    0.0000    0.0000 P   0  0  0  0  0  0  0  0  0  0  0  0
    1.3856   -0.8000    0.0000 O   0  0  0  0  0  0  0  0  0  0  0  0
    2.7712    0.0000    0.0000 C   0  0  0  0  0  0  0  0  0  0  0  0
    3.3836    1.4782    0.0000 H   0  0  0  0  0  0  0  0  0  0  0  0
    2.1589    1.4782    0.0000 H   0  0  0  0  0  0  0  0  0  0  0  0
    4.1569   -0.8000    0.0000 C   0  0  0  0  0  0  0  0  0  0  0  0
    5.5426   -1.6000    0.0000 H   0  0  0  0  0  0  0  0  0  0  0  0
    5.5426   -0.0000    0.0000 H   0  0  0  0  0  0  0  0  0  0  0  0
    4.1569   -2.4000    0.0000 H   0  0  0  0  0  0  0  0  0  0  0  0
   -1.3856    0.8000    0.0000 O   0  0  0  0  0  0  0  0  0  0  0  0
   -2.7712    0.0000    0.0000 C   0  0  0  0  0  0  0  0  0  0  0  0
   -3.3836   -1.4782    0.0000 H   0  0  0  0  0  0  0  0  0  0  0  0
   -2.1589   -1.4782    0.0000 H   0  0  0  0  0  0  0  0  0  0  0  0
   -4.1569    0.8000    0.0000 C   0  0  0  0  0  0  0  0  0  0  0  0
   -5.5426    1.6000    0.0000 H   0  0  0  0  0  0  0  0  0  0  0  0
   -5.5426    0.0000    0.0000 H   0  0  0  0  0  0  0  0  0  0  0  0
   -4.1569    2.4000    0.0000 H   0  0  0  0  0  0  0  0  0  0  0  0
    1.3856    0.8000    0.0000 S   0  0  0  0  0  0  0  0  0  0  0  0
    1.3856    2.4000    0.0000 H   0  0  0  0  0  0  0  0  0  0  0  0
    0.0001   -1.6000    0.0000 S   0  0  0  0  0  0  0  0  0  0  0  0
  1  2  1  0  0  0  0
  2  3  1  0  0  0  0
  3  4  1  0  0  0  0
  3  5  1  0  0  0  0
  3  6  1  0  0  0  0
  6  7  1  0  0  0  0
  6  8  1  0  0  0  0
  6  9  1  0  0  0  0
  1 10  1  0  0  0  0
 10 11  1  0  0  0  0
 11 12  1  0  0  0  0
 11 13  1  0  0  0  0
 11 14  1  0  0  0  0
 14 15  1  0  0  0  0
 14 16  1  0  0  0  0
 14 17  1  0  0  0  0
  1 18  1  0  0  0  0
 18 19  1  0  0  0  0
  1 20  2  0  0  0  0
M  END
> <ChemID>
100735

> <source_casrn>
298-06-6

> <CAS>
298-06-6

> <SMILES>
CCOP(S)(=S)OCC

> <NAME>
Phosphorodithioic acid, O,O-diethyl ester

> <preferred_name>
O,O-Diethyl dithiophosphate

> <iupac>
O,O-diethyl hydrogen phosphorodithioate

> <MPID>
100744

> <dsstox_substance_id>
DTXSID6027133

> <Canonical_QSARr>
CCOP(S)(=S)OCC

> <InChI_Code_QSARr>
InChI=1S/C4H11O2PS2/c1-3-5-7(8,9)6-4-2/h3-4H2,1-2H3,(H,8,9)

> <InChI Key_QSARr>
IRDLUHRVLVEUHA-UHFFFAOYSA-N

> <Salt_Solvent>
?

> <Ready_Biodeg>
0.0

$$$$
100740
  -INDIGO-08031722522D

 24 24  0  0  0  0  0  0  0  0999 V2000
    7.2000    4.1569    0.0000 Cl  0  0  0  0  0  0  0  0  0  0  0  0
    6.4000    2.7713    0.0000 C   0  0  0  0  0  0  0  0  0  0  0  0
    7.2000    1.3856    0.0000 C   0  0  0  0  0  0  0  0  0  0  0  0
    8.8000    1.3856    0.0000 Cl  0  0  0  0  0  0  0  0  0  0  0  0
    6.4000    0.0000    0.0000 C   0  0  0  0  0  0  0  0  0  0  0  0
    7.2000   -1.3856    0.0000 H   0  0  0  0  0  0  0  0  0  0  0  0
    4.8001    0.0000    0.0000 C   0  0  0  0  0  0  0  0  0  0  0  0
    4.0001   -1.3856    0.0000 H   0  0  0  0  0  0  0  0  0  0  0  0
    4.0001    1.3856    0.0000 C   0  0  0  0  0  0  0  0  0  0  0  0
    2.3999    1.3856    0.0000 N   0  0  0  0  0  0  0  0  0  0  0  0
    1.5999    2.7713    0.0000 H   0  0  0  0  0  0  0  0  0  0  0  0
    1.5999    0.0000    0.0000 C   0  0  0  0  0  0  0  0  0  0  0  0
    2.3999   -1.3856    0.0000 O   0  0  0  0  0  0  0  0  0  0  0  0
   -0.0000    0.0000    0.0000 N   0  0  0  0  0  0  0  0  0  0  0  0
   -0.8000   -1.3856    0.0000 C   0  0  0  0  0  0  0  0  0  0  0  0
   -1.6000   -2.7713    0.0000 H   0  0  0  0  0  0  0  0  0  0  0  0
   -2.4000   -1.3856    0.0000 H   0  0  0  0  0  0  0  0  0  0  0  0
   -0.0000   -2.7713    0.0000 H   0  0  0  0  0  0  0  0  0  0  0  0
   -0.8000    1.3856    0.0000 C   0  0  0  0  0  0  0  0  0  0  0  0
   -1.6000    2.7713    0.0000 H   0  0  0  0  0  0  0  0  0  0  0  0
   -2.4000    1.3856    0.0000 H   0  0  0  0  0  0  0  0  0  0  0  0
   -0.0000    2.7713    0.0000 H   0  0  0  0  0  0  0  0  0  0  0  0
    4.8001    2.7713    0.0000 C   0  0  0  0  0  0  0  0  0  0  0  0
    4.0001    4.1569    0.0000 H   0  0  0  0  0  0  0  0  0  0  0  0
  1  2  1  0  0  0  0
  2  3  1  0  0  0  0
  3  4  1  0  0  0  0
  3  5  2  0  0  0  0
  5  6  1  0  0  0  0
  5  7  1  0  0  0  0
  7  8  1  0  0  0  0
  7  9  2  0  0  0  0
  9 10  1  0  0  0  0
 10 11  1  0  0  0  0
 10 12  1  0  0  0  0
 12 13  2  0  0  0  0
 12 14  1  0  0  0  0
 14 15  1  0  0  0  0
 15 16  1  0  0  0  0
 15 17  1  0  0  0  0
 15 18  1  0  0  0  0
 14 19  1  0  0  0  0
 19 20  1  0  0  0  0
 19 21  1  0  0  0  0
 19 22  1  0  0  0  0
  9 23  1  0  0  0  0
 23  2  2  0  0  0  0
 23 24  1  0  0  0  0
M  END
> <ChemID>
100740

> <source_casrn>
330-54-1

> <CAS>
330-54-1

> <SMILES>
CN(C)C(=O)Nc1cc(Cl)c(Cl)cc1

> <NAME>
Diuron

> <preferred_name>
Diuron

> <iupac>
3-(3,4-dichlorophenyl)-1,1-dimethylurea

> <MPID>
100748

> <dsstox_substance_id>
DTXSID0020446

> <Canonical_QSARr>
CN(C)C(=O)Nc1cc(Cl)c(Cl)cc1

> <InChI_Code_QSARr>
InChI=1S/C9H10Cl2N2O/c1-13(2)9(14)12-6-3-4-7(10)8(11)5-6/h3-5H,1-2H3,(H,12,14)

> <InChI Key_QSARr>
XMTQQYYKAHVGBJ-UHFFFAOYSA-N

> <Salt_Solvent>
?

> <Ready_Biodeg>
0.0

$$$$
100744
  -INDIGO-08031722522D

 30 32  0  0  0  0  0  0  0  0999 V2000
   -6.7501    0.8993    0.0000 F   0  0  0  0  0  0  0  0  0  0  0  0
   -5.2884    0.2485    0.0000 C   0  0  0  0  0  0  0  0  0  0  0  0
   -3.9941    1.1891    0.0000 C   0  0  0  0  0  0  0  0  0  0  0  0
   -4.1613    2.7803    0.0000 H   0  0  0  0  0  0  0  0  0  0  0  0
   -2.5322    0.5383    0.0000 C   0  0  0  0  0  0  0  0  0  0  0  0
   -1.0706    1.1891    0.0000 C   0  0  0  0  0  0  0  0  0  0  0  0
    0.2238    2.1295    0.0000 H   0  0  0  0  0  0  0  0  0  0  0  0
   -1.8705    2.5747    0.0000 H   0  0  0  0  0  0  0  0  0  0  0  0
    0.0001    0.0000    0.0000 C   0  0  0  0  0  0  0  0  0  0  0  0
   -0.8001   -1.3856    0.0000 C   0  0  0  0  0  0  0  0  0  0  0  0
   -2.3650   -1.0529    0.0000 C   0  0  0  0  0  0  0  0  0  0  0  0
   -3.6594   -1.9935    0.0000 C   0  0  0  0  0  0  0  0  0  0  0  0
   -3.4921   -3.5847    0.0000 H   0  0  0  0  0  0  0  0  0  0  0  0
   -5.1212   -1.3427    0.0000 C   0  0  0  0  0  0  0  0  0  0  0  0
   -6.4156   -2.2831    0.0000 H   0  0  0  0  0  0  0  0  0  0  0  0
    0.0001   -2.7713    0.0000 C   0  0  0  0  0  0  0  0  0  0  0  0
   -0.8001   -4.1569    0.0000 H   0  0  0  0  0  0  0  0  0  0  0  0
    1.6001   -2.7713    0.0000 C   0  0  0  0  0  0  0  0  0  0  0  0
    2.4000   -4.1569    0.0000 H   0  0  0  0  0  0  0  0  0  0  0  0
    2.4000   -1.3856    0.0000 C   0  0  0  0  0  0  0  0  0  0  0  0
    4.0000   -1.3856    0.0000 N   0  0  0  0  0  0  0  0  0  0  0  0
    4.7999    0.0000    0.0000 H   0  0  0  0  0  0  0  0  0  0  0  0
    4.7999   -2.7713    0.0000 C   0  0  0  0  0  0  0  0  0  0  0  0
    4.0000   -4.1569    0.0000 O   0  0  0  0  0  0  0  0  0  0  0  0
    6.4000   -2.7713    0.0000 C   0  0  0  0  0  0  0  0  0  0  0  0
    8.0000   -2.7713    0.0000 H   0  0  0  0  0  0  0  0  0  0  0  0
    7.2001   -4.1569    0.0000 H   0  0  0  0  0  0  0  0  0  0  0  0
    7.2001   -1.3856    0.0000 H   0  0  0  0  0  0  0  0  0  0  0  0
    1.6001    0.0000    0.0000 C   0  0  0  0  0  0  0  0  0  0  0  0
    2.4000    1.3856    0.0000 H   0  0  0  0  0  0  0  0  0  0  0  0
  1  2  1  0  0  0  0
  2  3  1  0  0  0  0
  3  4  1  0  0  0  0
  3  5  2  0  0  0  0
  5  6  1  0  0  0  0
  6  7  1  0  0  0  0
  6  8  1  0  0  0  0
  6  9  1  0  0  0  0
  9 10  1  0  0  0  0
 10 11  1  0  0  0  0
 11  5  1  0  0  0  0
 11 12  2  0  0  0  0
 12 13  1  0  0  0  0
 12 14  1  0  0  0  0
 14  2  2  0  0  0  0
 14 15  1  0  0  0  0
 10 16  2  0  0  0  0
 16 17  1  0  0  0  0
 16 18  1  0  0  0  0
 18 19  1  0  0  0  0
 18 20  2  0  0  0  0
 20 21  1  0  0  0  0
 21 22  1  0  0  0  0
 21 23  1  0  0  0  0
 23 24  2  0  0  0  0
 23 25  1  0  0  0  0
 25 26  1  0  0  0  0
 25 27  1  0  0  0  0
 25 28  1  0  0  0  0
 20 29  1  0  0  0  0
 29  9  2  0  0  0  0
 29 30  1  0  0  0  0
M  END
> <ChemID>
100744

> <source_casrn>
343-89-5

> <CAS>
343-89-5

> <SMILES>
CC(=O)Nc1cc2Cc3cc(F)ccc3-c2cc1

> <NAME>
2-Acetamido-7-fluorofluorene

> <preferred_name>
7-Fluoro-N-2-acetylaminofluorene

> <iupac>
N-(7-fluoro-9H-fluoren-2-yl)acetamide

> <MPID>
100752

> <dsstox_substance_id>
DTXSID80187863

> <Canonical_QSARr>
CC(=O)Nc1cc2Cc3cc(F)ccc3-c2cc1

> <InChI_Code_QSARr>
InChI=1S/C15H12FNO/c1-9(18)17-13-3-5-15-11(8-13)6-10-7-12(16)2-4-14(10)15/h2-5,7-8H,6H2,1H3,(H,17,18)

> <InChI Key_QSARr>
UAGZFYAGROGZQW-UHFFFAOYSA-N

> <Salt_Solvent>
?

> <Ready_Biodeg>
0.0

$$$$
100748
  -INDIGO-08031722522D

 50 49  0  0  0  0  0  0  0  0999 V2000
   12.4707    0.8000    0.0000 O   0  0  0  0  0  0  0  0  0  0  0  0
   13.8564    0.0000    0.0000 H   0  0  0  0  0  0  0  0  0  0  0  0
   11.0850    0.0000    0.0000 C   0  0  0  0  0  0  0  0  0  0  0  0
    9.6997    0.8000    0.0000 C   0  0  0  0  0  0  0  0  0  0  0  0
    9.0873    2.2782    0.0000 H   0  0  0  0  0  0  0  0  0  0  0  0
   10.3117    2.2782    0.0000 H   0  0  0  0  0  0  0  0  0  0  0  0
    8.3140    0.0000    0.0000 C   0  0  0  0  0  0  0  0  0  0  0  0
    8.9259   -1.4782    0.0000 H   0  0  0  0  0  0  0  0  0  0  0  0
    7.7016   -1.4782    0.0000 H   0  0  0  0  0  0  0  0  0  0  0  0
    6.9283    0.8000    0.0000 C   0  0  0  0  0  0  0  0  0  0  0  0
    6.3159    2.2782    0.0000 H   0  0  0  0  0  0  0  0  0  0  0  0
    7.5406    2.2782    0.0000 H   0  0  0  0  0  0  0  0  0  0  0  0
    5.5426    0.0000    0.0000 C   0  0  0  0  0  0  0  0  0  0  0  0
    6.1549   -1.4782    0.0000 H   0  0  0  0  0  0  0  0  0  0  0  0
    4.9302   -1.4782    0.0000 H   0  0  0  0  0  0  0  0  0  0  0  0
    4.1569    0.8000    0.0000 C   0  0  0  0  0  0  0  0  0  0  0  0
    3.5445    2.2782    0.0000 H   0  0  0  0  0  0  0  0  0  0  0  0
    4.7692    2.2782    0.0000 H   0  0  0  0  0  0  0  0  0  0  0  0
    2.7712    0.0000    0.0000 C   0  0  0  0  0  0  0  0  0  0  0  0
    3.3835   -1.4782    0.0000 H   0  0  0  0  0  0  0  0  0  0  0  0
    2.1592   -1.4782    0.0000 H   0  0  0  0  0  0  0  0  0  0  0  0
    1.3855    0.8000    0.0000 C   0  0  0  0  0  0  0  0  0  0  0  0
    0.7735    2.2782    0.0000 H   0  0  0  0  0  0  0  0  0  0  0  0
    1.9978    2.2782    0.0000 H   0  0  0  0  0  0  0  0  0  0  0  0
    0.0001    0.0000    0.0000 C   0  0  0  0  0  0  0  0  0  0  0  0
    0.6121   -1.4782    0.0000 H   0  0  0  0  0  0  0  0  0  0  0  0
   -0.6122   -1.4782    0.0000 H   0  0  0  0  0  0  0  0  0  0  0  0
   -1.3856    0.8000    0.0000 C   0  0  0  0  0  0  0  0  0  0  0  0
   -1.9979    2.2782    0.0000 H   0  0  0  0  0  0  0  0  0  0  0  0
   -0.7732    2.2782    0.0000 H   0  0  0  0  0  0  0  0  0  0  0  0
   -2.7713    0.0000    0.0000 C   0  0  0  0  0  0  0  0  0  0  0  0
   -2.1589   -1.4782    0.0000 H   0  0  0  0  0  0  0  0  0  0  0  0
   -3.3836   -1.4782    0.0000 H   0  0  0  0  0  0  0  0  0  0  0  0
   -4.1570    0.8000    0.0000 C   0  0  0  0  0  0  0  0  0  0  0  0
   -4.7693    2.2782    0.0000 H   0  0  0  0  0  0  0  0  0  0  0  0
   -3.5446    2.2782    0.0000 H   0  0  0  0  0  0  0  0  0  0  0  0
   -5.5427    0.0000    0.0000 C   0  0  0  0  0  0  0  0  0  0  0  0
   -4.9303   -1.4782    0.0000 H   0  0  0  0  0  0  0  0  0  0  0  0
   -6.1547   -1.4782    0.0000 H   0  0  0  0  0  0  0  0  0  0  0  0
   -6.9284    0.8000    0.0000 C   0  0  0  0  0  0  0  0  0  0  0  0
   -7.5404    2.2782    0.0000 H   0  0  0  0  0  0  0  0  0  0  0  0
   -6.3160    2.2782    0.0000 H   0  0  0  0  0  0  0  0  0  0  0  0
   -8.3137    0.0000    0.0000 C   0  0  0  0  0  0  0  0  0  0  0  0
   -7.7017   -1.4782    0.0000 H   0  0  0  0  0  0  0  0  0  0  0  0
   -8.9261   -1.4782    0.0000 H   0  0  0  0  0  0  0  0  0  0  0  0
   -9.6994    0.8000    0.0000 C   0  0  0  0  0  0  0  0  0  0  0  0
  -11.0851    1.6000    0.0000 H   0  0  0  0  0  0  0  0  0  0  0  0
  -11.0851    0.0000    0.0000 H   0  0  0  0  0  0  0  0  0  0  0  0
   -9.6994    2.4000    0.0000 H   0  0  0  0  0  0  0  0  0  0  0  0
   11.0850   -1.6000    0.0000 O   0  0  0  0  0  0  0  0  0  0  0  0
  1  2  1  0  0  0  0
  1  3  1  0  0  0  0
  3  4  1  0  0  0  0
  4  5  1  0  0  0  0
  4  6  1  0  0  0  0
  4  7  1  0  0  0  0
  7  8  1  0  0  0  0
  7  9  1  0  0  0  0
  7 10  1  0  0  0  0
 10 11  1  0  0  0  0
 10 12  1  0  0  0  0
 10 13  1  0  0  0  0
 13 14  1  0  0  0  0
 13 15  1  0  0  0  0
 13 16  1  0  0  0  0
 16 17  1  0  0  0  0
 16 18  1  0  0  0  0
 16 19  1  0  0  0  0
 19 20  1  0  0  0  0
 19 21  1  0  0  0  0
 19 22  1  0  0  0  0
 22 23  1  0  0  0  0
 22 24  1  0  0  0  0
 22 25  1  0  0  0  0
 25 26  1  0  0  0  0
 25 27  1  0  0  0  0
 25 28  1  0  0  0  0
 28 29  1  0  0  0  0
 28 30  1  0  0  0  0
 28 31  1  0  0  0  0
 31 32  1  0  0  0  0
 31 33  1  0  0  0  0
 31 34  1  0  0  0  0
 34 35  1  0  0  0  0
 34 36  1  0  0  0  0
 34 37  1  0  0  0  0
 37 38  1  0  0  0  0
 37 39  1  0  0  0  0
 37 40  1  0  0  0  0
 40 41  1  0  0  0  0
 40 42  1  0  0  0  0
 40 43  1  0  0  0  0
 43 44  1  0  0  0  0
 43 45  1  0  0  0  0
 43 46  1  0  0  0  0
 46 47  1  0  0  0  0
 46 48  1  0  0  0  0
 46 49  1  0  0  0  0
  3 50  2  0  0  0  0
M  END
> <ChemID>
100748

> <source_casrn>
408-35-5

> <CAS>
408-35-5

> <SMILES>
[Na+].CCCCCCCCCCCCCCCC([O-])=O

> <NAME>
Sodium palmitate

> <preferred_name>
Sodium palmitate

> <iupac>
sodium hexadecanoate

> <MPID>
100755

> <dsstox_substance_id>
DTXSID2041127

> <Canonical_QSARr>
CCCCCCCCCCCCCCCC(O)=O

> <InChI_Code_QSARr>
InChI=1S/C16H32O2/c1-2-3-4-5-6-7-8-9-10-11-12-13-14-15-16(17)18/h2-15H2,1H3,(H,17,18)

> <InChI Key_QSARr>
IPCSVZSSVZVIGE-UHFFFAOYSA-N

> <Salt_Solvent>
[Na+]

> <Ready_Biodeg>
1.0

$$$$
100751
  -INDIGO-08031722522D

 10  9  0  0  0  0  0  0  0  0999 V2000
   -2.7713    0.0000    0.0000 C   0  0  0  0  0  0  0  0  0  0  0  0
   -1.3856    0.8000    0.0000 N   0  0  0  0  0  0  0  0  0  0  0  0
   -1.3856    2.4000    0.0000 H   0  0  0  0  0  0  0  0  0  0  0  0
    0.0000    0.0000    0.0000 C   0  0  0  0  0  0  0  0  0  0  0  0
    0.0000   -1.6000    0.0000 N   0  0  0  0  0  0  0  0  0  0  0  0
    1.3856   -2.4000    0.0000 H   0  0  0  0  0  0  0  0  0  0  0  0
    1.3856    0.8000    0.0000 N   0  0  0  0  0  0  0  0  0  0  0  0
    2.7713   -0.0000    0.0000 H   0  0  0  0  0  0  0  0  0  0  0  0
    1.3856    2.4000    0.0000 H   0  0  0  0  0  0  0  0  0  0  0  0
   -4.1569   -0.8000    0.0000 N   0  0  0  0  0  0  0  0  0  0  0  0
  1  2  1  0  0  0  0
  2  3  1  0  0  0  0
  2  4  1  0  0  0  0
  4  5  2  0  0  0  0
  5  6  1  0  0  0  0
  4  7  1  0  0  0  0
  7  8  1  0  0  0  0
  7  9  1  0  0  0  0
  1 10  3  0  0  0  0
M  END
> <ChemID>
100751

> <source_casrn>
461-58-5

> <CAS>
461-58-5

> <SMILES>
NC(=N)NC#N

> <NAME>
Guanidine, cyano-

> <preferred_name>
Cyanoguanidine

> <iupac>
1-cyanoguanidine

> <MPID>
100757

> <dsstox_substance_id>
DTXSID1020354

> <Canonical_QSARr>
NC(=N)NC#N

> <InChI_Code_QSARr>
InChI=1S/C2H4N4/c3-1-6-2(4)5/h(H4,4,5,6)

> <InChI Key_QSARr>
QGBSISYHAICWAH-UHFFFAOYSA-N

> <Salt_Solvent>
?

> <Ready_Biodeg>
0.0

$$$$
100755
  -INDIGO-08031722522D

 26 29  0  0  0  0  0  0  0  0999 V2000
    2.9769    0.6327    0.0000 C   0  0  0  0  0  0  0  0  0  0  0  0
    4.0475    1.8218    0.0000 H   0  0  0  0  0  0  0  0  0  0  0  0
    3.3095   -0.9323    0.0000 C   0  0  0  0  0  0  0  0  0  0  0  0
    4.7712   -1.5831    0.0000 H   0  0  0  0  0  0  0  0  0  0  0  0
    1.9239   -1.7323    0.0000 C   0  0  0  0  0  0  0  0  0  0  0  0
    2.2565   -3.2973    0.0000 H   0  0  0  0  0  0  0  0  0  0  0  0
    2.5747   -0.2706    0.0000 C   0  0  0  0  0  0  0  0  0  0  0  0
    3.9012    0.6241    0.0000 H   0  0  0  0  0  0  0  0  0  0  0  0
    4.1503   -0.5485    0.0000 H   0  0  0  0  0  0  0  0  0  0  0  0
    1.3857    0.8000    0.0000 C   0  0  0  0  0  0  0  0  0  0  0  0
    1.0530    2.3650    0.0000 H   0  0  0  0  0  0  0  0  0  0  0  0
    0.0000    0.0000    0.0000 C   0  0  0  0  0  0  0  0  0  0  0  0
   -0.3326    1.5651    0.0000 H   0  0  0  0  0  0  0  0  0  0  0  0
    0.3327   -1.5650    0.0000 C   0  0  0  0  0  0  0  0  0  0  0  0
    0.6653   -3.1301    0.0000 H   0  0  0  0  0  0  0  0  0  0  0  0
   -1.0530   -2.3650    0.0000 C   0  0  0  0  0  0  0  0  0  0  0  0
   -2.2420   -1.2945    0.0000 C   0  0  0  0  0  0  0  0  0  0  0  0
   -3.5685   -2.1891    0.0000 Cl  0  0  0  0  0  0  0  0  0  0  0  0
   -3.8177   -1.0166    0.0000 Cl  0  0  0  0  0  0  0  0  0  0  0  0
   -1.5912    0.1672    0.0000 C   0  0  0  0  0  0  0  0  0  0  0  0
   -2.9769   -0.6327    0.0000 C   0  0  0  0  0  0  0  0  0  0  0  0
   -2.6442   -2.1978    0.0000 C   0  0  0  0  0  0  0  0  0  0  0  0
   -3.7148   -3.3868    0.0000 Cl  0  0  0  0  0  0  0  0  0  0  0  0
   -4.4385    0.0181    0.0000 Cl  0  0  0  0  0  0  0  0  0  0  0  0
   -1.9239    1.7323    0.0000 Cl  0  0  0  0  0  0  0  0  0  0  0  0
   -0.7204   -3.9301    0.0000 Cl  0  0  0  0  0  0  0  0  0  0  0  0
  1  2  1  0  0  0  0
  1  3  2  0  0  0  0
  3  4  1  0  0  0  0
  3  5  1  0  0  0  0
  5  6  1  0  0  0  0
  5  7  1  0  0  0  0
  7  8  1  0  0  0  0
  7  9  1  0  0  0  0
  7 10  1  0  0  0  0
 10  1  1  0  0  0  0
 10 11  1  0  0  0  0
 10 12  1  0  0  0  0
 12 13  1  0  0  0  0
 12 14  1  0  0  0  0
 14  5  1  0  0  0  0
 14 15  1  0  0  0  0
 14 16  1  0  0  0  0
 16 17  1  0  0  0  0
 17 18  1  0  0  0  0
 17 19  1  0  0  0  0
 17 20  1  0  0  0  0
 20 12  1  0  0  0  0
 20 21  1  0  0  0  0
 21 22  2  0  0  0  0
 22 16  1  0  0  0  0
 22 23  1  0  0  0  0
 21 24  1  0  0  0  0
 20 25  1  0  0  0  0
 16 26  1  0  0  0  0
M  END
> <ChemID>
100755

> <source_casrn>
465-73-6

> <CAS>
465-73-6

> <SMILES>
C(=C(C(C1(Cl)Cl)(C(C(C=CC23)C2)C34)Cl)Cl)(C14Cl)Cl

> <NAME>
1,4:5,8-Dimethanonaphthalene, 1,2,3,4,10,10-hexachloro-1,4,4a,5,8,8a-

> <preferred_name>
Isodrin

> <iupac>
(1R,4S,4aS,5R,8R,8aR)-1,2,3,4,10,10-hexachloro-1,4,4a,5,8,8a-hexahydro-1,4:5,8-dimethanonaphthalene

> <MPID>
100761

> <dsstox_substance_id>
DTXSID7042065

> <Canonical_QSARr>
ClC1(Cl)C2(Cl)C3C4CC(C=C4)C3C1(Cl)C(Cl)=C2Cl

> <InChI_Code_QSARr>
InChI=1S/C12H8Cl6/c13-8-9(14)11(16)7-5-2-1-4(3-5)6(7)10(8,15)12(11,17)18/h1-2,4-7H,3H2

> <InChI Key_QSARr>
QBYJBZPUGVGKQQ-UHFFFAOYSA-N

> <Salt_Solvent>
?

> <Ready_Biodeg>
0.0

$$$$
100759
  -INDIGO-08031722522D

 35 38  0  0  0  0  0  0  0  0999 V2000
   -0.0001    1.6000    0.0000 N   0  0  0  0  0  0  0  0  0  0  0  0
   -1.3856    2.4001    0.0000 C   0  0  0  0  0  0  0  0  0  0  0  0
   -0.5856    3.7857    0.0000 H   0  0  0  0  0  0  0  0  0  0  0  0
   -2.4141    3.6256    0.0000 H   0  0  0  0  0  0  0  0  0  0  0  0
   -2.7713    1.6000    0.0000 C   0  0  0  0  0  0  0  0  0  0  0  0
   -2.7713   -0.0000    0.0000 C   0  0  0  0  0  0  0  0  0  0  0  0
   -4.1570   -0.8000    0.0000 C   0  0  0  0  0  0  0  0  0  0  0  0
   -4.1570   -2.4000    0.0000 H   0  0  0  0  0  0  0  0  0  0  0  0
   -5.5425   -0.0000    0.0000 C   0  0  0  0  0  0  0  0  0  0  0  0
   -6.9282   -0.8000    0.0000 H   0  0  0  0  0  0  0  0  0  0  0  0
   -5.5425    1.6000    0.0000 C   0  0  0  0  0  0  0  0  0  0  0  0
   -6.9282    2.4001    0.0000 H   0  0  0  0  0  0  0  0  0  0  0  0
   -4.1570    2.4001    0.0000 C   0  0  0  0  0  0  0  0  0  0  0  0
   -4.1570    4.0000    0.0000 H   0  0  0  0  0  0  0  0  0  0  0  0
   -1.3856   -0.8000    0.0000 C   0  0  0  0  0  0  0  0  0  0  0  0
   -2.4141   -2.0257    0.0000 H   0  0  0  0  0  0  0  0  0  0  0  0
   -0.8385   -2.3035    0.0000 H   0  0  0  0  0  0  0  0  0  0  0  0
   -0.0001   -0.0000    0.0000 C   0  0  0  0  0  0  0  0  0  0  0  0
   -0.0001   -1.6000    0.0000 H   0  0  0  0  0  0  0  0  0  0  0  0
    1.3856   -0.8000    0.0000 C   0  0  0  0  0  0  0  0  0  0  0  0
    2.7713   -0.0000    0.0000 C   0  0  0  0  0  0  0  0  0  0  0  0
    4.1569   -0.8000    0.0000 C   0  0  0  0  0  0  0  0  0  0  0  0
    5.5426   -0.0000    0.0000 H   0  0  0  0  0  0  0  0  0  0  0  0
    4.1569   -2.4000    0.0000 C   0  0  0  0  0  0  0  0  0  0  0  0
    5.5426   -3.2001    0.0000 H   0  0  0  0  0  0  0  0  0  0  0  0
    2.7713   -3.2001    0.0000 C   0  0  0  0  0  0  0  0  0  0  0  0
    2.7713   -4.8000    0.0000 H   0  0  0  0  0  0  0  0  0  0  0  0
    1.3856   -2.4000    0.0000 C   0  0  0  0  0  0  0  0  0  0  0  0
   -0.0001   -3.2001    0.0000 H   0  0  0  0  0  0  0  0  0  0  0  0
    2.7713    1.6000    0.0000 C   0  0  0  0  0  0  0  0  0  0  0  0
    4.3470    1.3222    0.0000 H   0  0  0  0  0  0  0  0  0  0  0  0
    3.3184    3.1035    0.0000 H   0  0  0  0  0  0  0  0  0  0  0  0
    1.3856    2.4001    0.0000 C   0  0  0  0  0  0  0  0  0  0  0  0
    2.4142    3.6256    0.0000 H   0  0  0  0  0  0  0  0  0  0  0  0
    0.5857    3.7857    0.0000 H   0  0  0  0  0  0  0  0  0  0  0  0
  1  2  1  0  0  0  0
  2  3  1  0  0  0  0
  2  4  1  0  0  0  0
  2  5  1  0  0  0  0
  5  6  1  0  0  0  0
  6  7  2  0  0  0  0
  7  8  1  0  0  0  0
  7  9  1  0  0  0  0
  9 10  1  0  0  0  0
  9 11  2  0  0  0  0
 11 12  1  0  0  0  0
 11 13  1  0  0  0  0
 13  5  2  0  0  0  0
 13 14  1  0  0  0  0
  6 15  1  0  0  0  0
 15 16  1  0  0  0  0
 15 17  1  0  0  0  0
 15 18  1  0  0  0  0
 18  1  1  0  0  0  0
 18 19  1  0  0  0  0
 18 20  1  0  0  0  0
 20 21  1  0  0  0  0
 21 22  2  0  0  0  0
 22 23  1  0  0  0  0
 22 24  1  0  0  0  0
 24 25  1  0  0  0  0
 24 26  2  0  0  0  0
 26 27  1  0  0  0  0
 26 28  1  0  0  0  0
 28 20  2  0  0  0  0
 28 29  1  0  0  0  0
 21 30  1  0  0  0  0
 30 31  1  0  0  0  0
 30 32  1  0  0  0  0
 30 33  1  0  0  0  0
 33  1  1  0  0  0  0
 33 34  1  0  0  0  0
 33 35  1  0  0  0  0
M  END
> <ChemID>
100759

> <source_casrn>
483-49-8

> <CAS>
NOCAS_870550

> <SMILES>
c1ccc2CN3CCc4ccccc4C3Cc2c1

> <NAME>
Berbine

> <preferred_name>


> <iupac>


> <MPID>
100766

> <dsstox_substance_id>
DTXSID70870550

> <Canonical_QSARr>
C1C2c3ccccc3CCN2Cc2ccccc21

> <InChI_Code_QSARr>
InChI=1S/C17H17N/c1-2-7-15-12-18-10-9-13-5-3-4-8-16(13)17(18)11-14(15)6-1/h1-8,17H,9-12H2

> <InChI Key_QSARr>
BRLDZKPJJNASGG-UHFFFAOYSA-N

> <Salt_Solvent>
?

> <Ready_Biodeg>
0.0

$$$$
100763
  -INDIGO-08031722522D

 17 17  0  0  0  0  0  0  0  0999 V2000
    0.0001   -0.0000    0.0000 C   0  0  0  0  0  0  0  0  0  0  0  0
    1.3857    0.8000    0.0000 C   0  0  0  0  0  0  0  0  0  0  0  0
    1.3857    2.4000    0.0000 H   0  0  0  0  0  0  0  0  0  0  0  0
    2.7712   -0.0000    0.0000 C   0  0  0  0  0  0  0  0  0  0  0  0
    4.1569    0.8000    0.0000 C   0  0  0  0  0  0  0  0  0  0  0  0
    5.5425   -0.0000    0.0000 O   0  0  0  0  0  0  0  0  0  0  0  0
    6.9282    0.8000    0.0000 H   0  0  0  0  0  0  0  0  0  0  0  0
    4.1569    2.4000    0.0000 O   0  0  0  0  0  0  0  0  0  0  0  0
    2.7712   -1.6000    0.0000 N   0  0  0  0  0  0  0  0  0  0  0  0
    1.3857   -2.4000    0.0000 C   0  0  0  0  0  0  0  0  0  0  0  0
    1.3857   -4.0000    0.0000 H   0  0  0  0  0  0  0  0  0  0  0  0
    0.0001   -1.6000    0.0000 C   0  0  0  0  0  0  0  0  0  0  0  0
   -1.3856   -2.4000    0.0000 H   0  0  0  0  0  0  0  0  0  0  0  0
   -1.3856    0.8000    0.0000 C   0  0  0  0  0  0  0  0  0  0  0  0
   -2.7713   -0.0000    0.0000 O   0  0  0  0  0  0  0  0  0  0  0  0
   -4.1569    0.8000    0.0000 H   0  0  0  0  0  0  0  0  0  0  0  0
   -1.3856    2.4000    0.0000 O   0  0  0  0  0  0  0  0  0  0  0  0
  1  2  1  0  0  0  0
  2  3  1  0  0  0  0
  2  4  2  0  0  0  0
  4  5  1  0  0  0  0
  5  6  1  0  0  0  0
  6  7  1  0  0  0  0
  5  8  2  0  0  0  0
  4  9  1  0  0  0  0
  9 10  2  0  0  0  0
 10 11  1  0  0  0  0
 10 12  1  0  0  0  0
 12  1  2  0  0  0  0
 12 13  1  0  0  0  0
  1 14  1  0  0  0  0
 14 15  1  0  0  0  0
 15 16  1  0  0  0  0
 14 17  2  0  0  0  0
M  END
> <ChemID>
100763

> <source_casrn>
499-80-9

> <CAS>
499-80-9

> <SMILES>
OC(=O)c1cc(cc[n]1)C(O)=O

> <NAME>
2,4-PYRIDINEDICARBOXYLIC ACID

> <preferred_name>
2,4-Pyridinedicarboxylic acid

> <iupac>
pyridine-2,4-dicarboxylic acid

> <MPID>
100770

> <dsstox_substance_id>
DTXSID9060104

> <Canonical_QSARr>
OC(=O)c1cc(cc[n]1)C(O)=O

> <InChI_Code_QSARr>
InChI=1S/C7H5NO4/c9-6(10)4-1-2-8-5(3-4)7(11)12/h1-3H,(H,9,10)(H,11,12)

> <InChI Key_QSARr>
MJIVRKPEXXHNJT-UHFFFAOYSA-N

> <Salt_Solvent>
?

> <Ready_Biodeg>
1.0

$$$$
100767
  -INDIGO-08031722522D

 17 16  0  0  0  0  0  0  0  0999 V2000
   -2.7292   -0.4813    0.0000 C   0  0  0  0  0  0  0  0  0  0  0  0
   -1.5035    0.5472    0.0000 C   0  0  0  0  0  0  0  0  0  0  0  0
   -1.1572    2.1093    0.0000 H   0  0  0  0  0  0  0  0  0  0  0  0
   -2.3632    1.8967    0.0000 H   0  0  0  0  0  0  0  0  0  0  0  0
   -0.0001    0.0000    0.0000 C   0  0  0  0  0  0  0  0  0  0  0  0
   -0.8000   -1.3856    0.0000 H   0  0  0  0  0  0  0  0  0  0  0  0
    1.3857   -0.8000    0.0000 C   0  0  0  0  0  0  0  0  0  0  0  0
    2.7713   -1.6000    0.0000 H   0  0  0  0  0  0  0  0  0  0  0  0
    1.3857   -2.4000    0.0000 H   0  0  0  0  0  0  0  0  0  0  0  0
    2.7713    0.0000    0.0000 H   0  0  0  0  0  0  0  0  0  0  0  0
    0.8000    1.3856    0.0000 C   0  0  0  0  0  0  0  0  0  0  0  0
    1.6000    2.7713    0.0000 H   0  0  0  0  0  0  0  0  0  0  0  0
   -0.0001    2.7713    0.0000 H   0  0  0  0  0  0  0  0  0  0  0  0
    2.4000    1.3856    0.0000 H   0  0  0  0  0  0  0  0  0  0  0  0
   -4.2327    0.0660    0.0000 O   0  0  0  0  0  0  0  0  0  0  0  0
   -5.4584   -0.9624    0.0000 H   0  0  0  0  0  0  0  0  0  0  0  0
   -2.4513   -2.0569    0.0000 O   0  0  0  0  0  0  0  0  0  0  0  0
  1  2  1  0  0  0  0
  2  3  1  0  0  0  0
  2  4  1  0  0  0  0
  2  5  1  0  0  0  0
  5  6  1  0  0  0  0
  5  7  1  0  0  0  0
  7  8  1  0  0  0  0
  7  9  1  0  0  0  0
  7 10  1  0  0  0  0
  5 11  1  0  0  0  0
 11 12  1  0  0  0  0
 11 13  1  0  0  0  0
 11 14  1  0  0  0  0
  1 15  1  0  0  0  0
 15 16  1  0  0  0  0
  1 17  2  0  0  0  0
M  END
> <ChemID>
100767

> <source_casrn>
503-74-2

> <CAS>
503-74-2

> <SMILES>
O=C(O)CC(C)C

> <NAME>
iso-Valeric acid

> <preferred_name>
Isovaleric acid

> <iupac>
3-methylbutanoic acid

> <MPID>
100774

> <dsstox_substance_id>
DTXSID5029182

> <Canonical_QSARr>
CC(C)CC(O)=O

> <InChI_Code_QSARr>
InChI=1S/C5H10O2/c1-4(2)3-5(6)7/h4H,3H2,1-2H3,(H,6,7)

> <InChI Key_QSARr>
GWYFCOCPABKNJV-UHFFFAOYSA-N

> <Salt_Solvent>
?

> <Ready_Biodeg>
1.0

$$$$
100771
  -INDIGO-08031722522D

 13 13  0  0  0  0  0  0  0  0999 V2000
    1.6000   -0.0000    0.0000 N   0  0  0  0  0  0  0  0  0  0  0  0
    2.4000   -1.3856    0.0000 H   0  0  0  0  0  0  0  0  0  0  0  0
    2.4000    1.3856    0.0000 H   0  0  0  0  0  0  0  0  0  0  0  0
    0.0000   -0.0000    0.0000 C   0  0  0  0  0  0  0  0  0  0  0  0
   -0.8000    1.3856    0.0000 C   0  0  0  0  0  0  0  0  0  0  0  0
    0.0000    2.7713    0.0000 H   0  0  0  0  0  0  0  0  0  0  0  0
   -2.4000    1.3856    0.0000 C   0  0  0  0  0  0  0  0  0  0  0  0
   -3.2000    2.7713    0.0000 H   0  0  0  0  0  0  0  0  0  0  0  0
   -3.2000   -0.0000    0.0000 C   0  0  0  0  0  0  0  0  0  0  0  0
   -4.8000   -0.0000    0.0000 H   0  0  0  0  0  0  0  0  0  0  0  0
   -2.4000   -1.3856    0.0000 C   0  0  0  0  0  0  0  0  0  0  0  0
   -3.2000   -2.7713    0.0000 H   0  0  0  0  0  0  0  0  0  0  0  0
   -0.8000   -1.3856    0.0000 N   0  0  0  0  0  0  0  0  0  0  0  0
  1  2  1  0  0  0  0
  1  3  1  0  0  0  0
  1  4  1  0  0  0  0
  4  5  1  0  0  0  0
  5  6  1  0  0  0  0
  5  7  2  0  0  0  0
  7  8  1  0  0  0  0
  7  9  1  0  0  0  0
  9 10  1  0  0  0  0
  9 11  2  0  0  0  0
 11 12  1  0  0  0  0
 11 13  1  0  0  0  0
 13  4  2  0  0  0  0
M  END
> <ChemID>
100771

> <source_casrn>
504-29-0

> <CAS>
504-29-0

> <SMILES>
Nc1cccc[n]1

> <NAME>
2-Pyridinamine

> <preferred_name>
2-Aminopyridine

> <iupac>
pyridin-2-amine

> <MPID>
100778

> <dsstox_substance_id>
DTXSID0024505

> <Canonical_QSARr>
Nc1cccc[n]1

> <InChI_Code_QSARr>
InChI=1S/C5H6N2/c6-5-3-1-2-4-7-5/h1-4H,(H2,6,7)

> <InChI Key_QSARr>
ICSNLGPSRYBMBD-UHFFFAOYSA-N

> <Salt_Solvent>
?

> <Ready_Biodeg>
0.0

$$$$
100776
  -INDIGO-08031722522D

 35 36  0  0  0  0  0  0  0  0999 V2000
   -1.3857   -0.8001    0.0000 O   0  0  0  0  0  0  0  0  0  0  0  0
   -1.3857   -2.4000    0.0000 H   0  0  0  0  0  0  0  0  0  0  0  0
   -0.0000   -0.0000    0.0000 C   0  0  0  0  0  0  0  0  0  0  0  0
   -1.2257    1.0285    0.0000 C   0  0  0  0  0  0  0  0  0  0  0  0
   -1.2257    2.6284    0.0000 C   0  0  0  0  0  0  0  0  0  0  0  0
   -0.0000    3.6569    0.0000 H   0  0  0  0  0  0  0  0  0  0  0  0
   -2.6114    3.4285    0.0000 C   0  0  0  0  0  0  0  0  0  0  0  0
   -2.6114    5.0285    0.0000 H   0  0  0  0  0  0  0  0  0  0  0  0
   -3.9969    2.6284    0.0000 C   0  0  0  0  0  0  0  0  0  0  0  0
   -5.3826    3.4285    0.0000 Cl  0  0  0  0  0  0  0  0  0  0  0  0
   -3.9969    1.0285    0.0000 C   0  0  0  0  0  0  0  0  0  0  0  0
   -5.3826    0.2284    0.0000 H   0  0  0  0  0  0  0  0  0  0  0  0
   -2.6114    0.2284    0.0000 C   0  0  0  0  0  0  0  0  0  0  0  0
   -2.6114   -1.3716    0.0000 H   0  0  0  0  0  0  0  0  0  0  0  0
    0.7999   -1.3856    0.0000 C   0  0  0  0  0  0  0  0  0  0  0  0
   -0.0000   -2.7712    0.0000 C   0  0  0  0  0  0  0  0  0  0  0  0
   -1.3857   -3.5713    0.0000 H   0  0  0  0  0  0  0  0  0  0  0  0
    0.7999   -4.1570    0.0000 C   0  0  0  0  0  0  0  0  0  0  0  0
   -0.0000   -5.5426    0.0000 H   0  0  0  0  0  0  0  0  0  0  0  0
    2.4001   -4.1570    0.0000 C   0  0  0  0  0  0  0  0  0  0  0  0
    3.2000   -5.5426    0.0000 Cl  0  0  0  0  0  0  0  0  0  0  0  0
    3.2000   -2.7712    0.0000 C   0  0  0  0  0  0  0  0  0  0  0  0
    4.8000   -2.7712    0.0000 H   0  0  0  0  0  0  0  0  0  0  0  0
    2.4001   -1.3856    0.0000 C   0  0  0  0  0  0  0  0  0  0  0  0
    3.2000   -0.0000    0.0000 H   0  0  0  0  0  0  0  0  0  0  0  0
    1.0285    1.2257    0.0000 C   0  0  0  0  0  0  0  0  0  0  0  0
    0.4812    2.7292    0.0000 O   0  0  0  0  0  0  0  0  0  0  0  0
    2.6041    0.9478    0.0000 O   0  0  0  0  0  0  0  0  0  0  0  0
    3.6326    2.1735    0.0000 C   0  0  0  0  0  0  0  0  0  0  0  0
    2.5517    3.3532    0.0000 H   0  0  0  0  0  0  0  0  0  0  0  0
    3.7024    3.7719    0.0000 H   0  0  0  0  0  0  0  0  0  0  0  0
    5.2084    1.8956    0.0000 C   0  0  0  0  0  0  0  0  0  0  0  0
    6.2367    3.1214    0.0000 H   0  0  0  0  0  0  0  0  0  0  0  0
    6.7840    1.6179    0.0000 H   0  0  0  0  0  0  0  0  0  0  0  0
    4.6611    3.3991    0.0000 H   0  0  0  0  0  0  0  0  0  0  0  0
  1  2  1  0  0  0  0
  1  3  1  0  0  0  0
  3  4  1  0  0  0  0
  4  5  1  0  0  0  0
  5  6  1  0  0  0  0
  5  7  2  0  0  0  0
  7  8  1  0  0  0  0
  7  9  1  0  0  0  0
  9 10  1  0  0  0  0
  9 11  2  0  0  0  0
 11 12  1  0  0  0  0
 11 13  1  0  0  0  0
 13  4  2  0  0  0  0
 13 14  1  0  0  0  0
  3 15  1  0  0  0  0
 15 16  1  0  0  0  0
 16 17  1  0  0  0  0
 16 18  2  0  0  0  0
 18 19  1  0  0  0  0
 18 20  1  0  0  0  0
 20 21  1  0  0  0  0
 20 22  2  0  0  0  0
 22 23  1  0  0  0  0
 22 24  1  0  0  0  0
 24 15  2  0  0  0  0
 24 25  1  0  0  0  0
  3 26  1  0  0  0  0
 26 27  2  0  0  0  0
 26 28  1  0  0  0  0
 28 29  1  0  0  0  0
 29 30  1  0  0  0  0
 29 31  1  0  0  0  0
 29 32  1  0  0  0  0
 32 33  1  0  0  0  0
 32 34  1  0  0  0  0
 32 35  1  0  0  0  0
M  END
> <ChemID>
100776

> <source_casrn>
510-15-6

> <CAS>
510-15-6

> <SMILES>
CCOC(=O)C(O)(c1ccc(Cl)cc1)c1ccc(Cl)cc1

> <NAME>
Chlorobenzilate

> <preferred_name>
Chlorobenzilate

> <iupac>
ethyl bis(4-chlorophenyl)(hydroxy)acetate

> <MPID>
100783

> <dsstox_substance_id>
DTXSID9020299

> <Canonical_QSARr>
CCOC(=O)C(O)(c1ccc(Cl)cc1)c1ccc(Cl)cc1

> <InChI_Code_QSARr>
InChI=1S/C16H14Cl2O3/c1-2-21-15(19)16(20,11-3-7-13(17)8-4-11)12-5-9-14(18)10-6-12/h3-10,20H,2H2,1H3

> <InChI Key_QSARr>
RAPBNVDSDCTNRC-UHFFFAOYSA-N

> <Salt_Solvent>
?

> <Ready_Biodeg>
0.0

$$$$
100780
  -INDIGO-08031722522D

 17 17  0  0  0  0  0  0  0  0999 V2000
   -0.0000    0.0000    0.0000 C   0  0  0  0  0  0  0  0  0  0  0  0
    0.6508    1.4617    0.0000 H   0  0  0  0  0  0  0  0  0  0  0  0
    1.5216   -0.4944    0.0000 C   0  0  0  0  0  0  0  0  0  0  0  0
    1.8543   -2.0595    0.0000 O   0  0  0  0  0  0  0  0  0  0  0  0
    2.7108    0.5762    0.0000 C   0  0  0  0  0  0  0  0  0  0  0  0
    3.8998    1.6468    0.0000 H   0  0  0  0  0  0  0  0  0  0  0  0
    4.2324    0.0817    0.0000 H   0  0  0  0  0  0  0  0  0  0  0  0
    2.3781    2.1412    0.0000 H   0  0  0  0  0  0  0  0  0  0  0  0
   -0.3327   -1.5650    0.0000 C   0  0  0  0  0  0  0  0  0  0  0  0
    0.7379   -2.7541    0.0000 O   0  0  0  0  0  0  0  0  0  0  0  0
   -1.9239   -1.7323    0.0000 O   0  0  0  0  0  0  0  0  0  0  0  0
   -2.5747   -0.2706    0.0000 C   0  0  0  0  0  0  0  0  0  0  0  0
   -3.9603   -1.0706    0.0000 H   0  0  0  0  0  0  0  0  0  0  0  0
   -3.5151    1.0238    0.0000 H   0  0  0  0  0  0  0  0  0  0  0  0
   -1.3857    0.8000    0.0000 C   0  0  0  0  0  0  0  0  0  0  0  0
   -2.5747    1.8706    0.0000 H   0  0  0  0  0  0  0  0  0  0  0  0
   -0.4452    2.0945    0.0000 H   0  0  0  0  0  0  0  0  0  0  0  0
  1  2  1  0  0  0  0
  1  3  1  0  0  0  0
  3  4  2  0  0  0  0
  3  5  1  0  0  0  0
  5  6  1  0  0  0  0
  5  7  1  0  0  0  0
  5  8  1  0  0  0  0
  1  9  1  0  0  0  0
  9 10  2  0  0  0  0
  9 11  1  0  0  0  0
 11 12  1  0  0  0  0
 12 13  1  0  0  0  0
 12 14  1  0  0  0  0
 12 15  1  0  0  0  0
 15  1  1  0  0  0  0
 15 16  1  0  0  0  0
 15 17  1  0  0  0  0
M  END
> <ChemID>
100780

> <source_casrn>
517-23-7

> <CAS>
517-23-7

> <SMILES>
CC(=O)C1CCOC1=O

> <NAME>
2(3H)-Furanone, 3-acetyldihydro-

> <preferred_name>
3-Acetyldihydro-2(3H)-furanone

> <iupac>
3-acetyldihydrofuran-2(3H)-one

> <MPID>
100787

> <dsstox_substance_id>
DTXSID6044436

> <Canonical_QSARr>
CC(=O)C1CCOC1=O

> <InChI_Code_QSARr>
InChI=1S/C6H8O3/c1-4(7)5-2-3-9-6(5)8/h5H,2-3H2,1H3

> <InChI Key_QSARr>
OMQHDIHZSDEIFH-UHFFFAOYSA-N

> <Salt_Solvent>
?

> <Ready_Biodeg>
1.0

$$$$
100784
  -INDIGO-08031722522D

 14 13  0  0  0  0  0  0  0  0999 V2000
   -1.3857   -0.8000    0.0000 C   0  0  0  0  0  0  0  0  0  0  0  0
   -0.0001    0.0000    0.0000 C   0  0  0  0  0  0  0  0  0  0  0  0
   -0.6124    1.4782    0.0000 H   0  0  0  0  0  0  0  0  0  0  0  0
    1.3857   -0.8000    0.0000 C   0  0  0  0  0  0  0  0  0  0  0  0
    1.9980   -2.2782    0.0000 H   0  0  0  0  0  0  0  0  0  0  0  0
    2.7713    0.0000    0.0000 C   0  0  0  0  0  0  0  0  0  0  0  0
    4.1569   -0.8000    0.0000 O   0  0  0  0  0  0  0  0  0  0  0  0
    5.5426    0.0000    0.0000 H   0  0  0  0  0  0  0  0  0  0  0  0
    2.7713    1.6000    0.0000 O   0  0  0  0  0  0  0  0  0  0  0  0
    0.7734   -2.2782    0.0000 Br  0  0  0  0  0  0  0  0  0  0  0  0
    0.6122    1.4782    0.0000 Br  0  0  0  0  0  0  0  0  0  0  0  0
   -2.7713    0.0000    0.0000 O   0  0  0  0  0  0  0  0  0  0  0  0
   -4.1569   -0.8000    0.0000 H   0  0  0  0  0  0  0  0  0  0  0  0
   -1.3857   -2.4000    0.0000 O   0  0  0  0  0  0  0  0  0  0  0  0
  1  2  1  0  0  0  0
  2  3  1  0  0  0  0
  2  4  1  0  0  0  0
  4  5  1  0  0  0  0
  4  6  1  0  0  0  0
  6  7  1  0  0  0  0
  7  8  1  0  0  0  0
  6  9  2  0  0  0  0
  4 10  1  0  0  0  0
  2 11  1  0  0  0  0
  1 12  1  0  0  0  0
 12 13  1  0  0  0  0
  1 14  2  0  0  0  0
M  END
> <ChemID>
100784

> <source_casrn>
526-78-3

> <CAS>
NOCAS_862120

> <SMILES>
O=C(O)C(Br)C(Br)C(=O)O

> <NAME>
Butanedioic acid, 2,3-dibromo-

> <preferred_name>


> <iupac>


> <MPID>
100791

> <dsstox_substance_id>
DTXSID00862120

> <Canonical_QSARr>
OC(=O)C(Br)C(Br)C(O)=O

> <InChI_Code_QSARr>
InChI=1S/C4H4Br2O4/c5-1(3(7)8)2(6)4(9)10/h1-2H,(H,7,8)(H,9,10)

> <InChI Key_QSARr>
FJWGRXKOBIVTFA-UHFFFAOYSA-N

> <Salt_Solvent>
?

> <Ready_Biodeg>
0.0

$$$$
100788
  -INDIGO-08031722522D

 16 16  0  0  0  0  0  0  0  0999 V2000
   -2.7713   -0.0000    0.0000 O   0  0  0  0  0  0  0  0  0  0  0  0
   -1.3856    0.8000    0.0000 N   0  0  0  0  0  0  0  0  0  0  0  0
   -1.3856    2.4000    0.0000 O   0  0  0  0  0  0  0  0  0  0  0  0
    0.0000   -0.0000    0.0000 C   0  0  0  0  0  0  0  0  0  0  0  0
    0.0000   -1.6000    0.0000 C   0  0  0  0  0  0  0  0  0  0  0  0
   -1.3856   -2.4000    0.0000 N   0  0  0  0  0  0  0  0  0  0  0  0
   -1.3856   -4.0000    0.0000 O   0  0  0  0  0  0  0  0  0  0  0  0
   -2.7713   -1.6000    0.0000 O   0  0  0  0  0  0  0  0  0  0  0  0
    1.3856   -2.4000    0.0000 C   0  0  0  0  0  0  0  0  0  0  0  0
    1.3856   -4.0000    0.0000 H   0  0  0  0  0  0  0  0  0  0  0  0
    2.7713   -1.6000    0.0000 C   0  0  0  0  0  0  0  0  0  0  0  0
    4.1569   -2.4000    0.0000 H   0  0  0  0  0  0  0  0  0  0  0  0
    2.7713   -0.0000    0.0000 C   0  0  0  0  0  0  0  0  0  0  0  0
    4.1569    0.8000    0.0000 H   0  0  0  0  0  0  0  0  0  0  0  0
    1.3856    0.8000    0.0000 C   0  0  0  0  0  0  0  0  0  0  0  0
    1.3856    2.4000    0.0000 H   0  0  0  0  0  0  0  0  0  0  0  0
  1  2  1  0  0  0  0
  2  3  2  0  0  0  0
  2  4  1  0  0  0  0
  4  5  1  0  0  0  0
  5  6  1  0  0  0  0
  6  7  2  0  0  0  0
  6  8  1  0  0  0  0
  5  9  2  0  0  0  0
  9 10  1  0  0  0  0
  9 11  1  0  0  0  0
 11 12  1  0  0  0  0
 11 13  2  0  0  0  0
 13 14  1  0  0  0  0
 13 15  1  0  0  0  0
 15  4  2  0  0  0  0
 15 16  1  0  0  0  0
M  CHG  4   1  -1   2   1   6   1   8  -1
M  END
> <ChemID>
100788

> <source_casrn>
528-29-0

> <CAS>
528-29-0

> <SMILES>
[O-][N+](=O)c1ccccc1[N+]([O-])=O

> <NAME>
o-Dinitrobenzene

> <preferred_name>
1,2-Dinitrobenzene

> <iupac>
1,2-dinitrobenzene

> <MPID>
100795

> <dsstox_substance_id>
DTXSID4024066

> <Canonical_QSARr>
[O-][N+](=O)c1ccccc1[N+]([O-])=O

> <InChI_Code_QSARr>
InChI=1S/C6H4N2O4/c9-7(10)5-3-1-2-4-6(5)8(11)12/h1-4H

> <InChI Key_QSARr>
IZUKQUVSCNEFMJ-UHFFFAOYSA-N

> <Salt_Solvent>
?

> <Ready_Biodeg>
0.0

$$$$
100793
  -INDIGO-08031722522D

 13 13  0  0  0  0  0  0  0  0999 V2000
    1.6000   -0.0000    0.0000 C   0  0  0  0  0  0  0  0  0  0  0  0
    2.4000   -1.3857    0.0000 C   0  0  0  0  0  0  0  0  0  0  0  0
    4.0000   -1.3857    0.0000 H   0  0  0  0  0  0  0  0  0  0  0  0
    1.6000   -2.7713    0.0000 C   0  0  0  0  0  0  0  0  0  0  0  0
    2.4000   -4.1569    0.0000 H   0  0  0  0  0  0  0  0  0  0  0  0
    0.0000   -2.7713    0.0000 C   0  0  0  0  0  0  0  0  0  0  0  0
   -0.8000   -4.1569    0.0000 H   0  0  0  0  0  0  0  0  0  0  0  0
   -0.8000   -1.3856    0.0000 C   0  0  0  0  0  0  0  0  0  0  0  0
   -2.4000   -1.3856    0.0000 H   0  0  0  0  0  0  0  0  0  0  0  0
    0.0000   -0.0000    0.0000 C   0  0  0  0  0  0  0  0  0  0  0  0
   -0.8000    1.3856    0.0000 O   0  0  0  0  0  0  0  0  0  0  0  0
   -2.4000    1.3856    0.0000 H   0  0  0  0  0  0  0  0  0  0  0  0
    2.4000    1.3856    0.0000 I   0  0  0  0  0  0  0  0  0  0  0  0
  1  2  1  0  0  0  0
  2  3  1  0  0  0  0
  2  4  2  0  0  0  0
  4  5  1  0  0  0  0
  4  6  1  0  0  0  0
  6  7  1  0  0  0  0
  6  8  2  0  0  0  0
  8  9  1  0  0  0  0
  8 10  1  0  0  0  0
 10  1  2  0  0  0  0
 10 11  1  0  0  0  0
 11 12  1  0  0  0  0
  1 13  1  0  0  0  0
M  END
> <ChemID>
100793

> <source_casrn>
533-58-4

> <CAS>
533-58-4

> <SMILES>
Oc1ccccc1I

> <NAME>
2-IODOPHENOL

> <preferred_name>
2-Iodophenol

> <iupac>
2-iodophenol

> <MPID>
100800

> <dsstox_substance_id>
DTXSID5052175

> <Canonical_QSARr>
Oc1ccccc1I

> <InChI_Code_QSARr>
InChI=1S/C6H5IO/c7-5-3-1-2-4-6(5)8/h1-4,8H

> <InChI Key_QSARr>
KQDJTBPASNJQFQ-UHFFFAOYSA-N

> <Salt_Solvent>
?

> <Ready_Biodeg>
0.0

$$$$
100797
  -INDIGO-08031722522D

 25 25  0  0  0  0  0  0  0  0999 V2000
   -0.0001    1.6000    0.0000 C   0  0  0  0  0  0  0  0  0  0  0  0
   -0.0001    3.2000    0.0000 H   0  0  0  0  0  0  0  0  0  0  0  0
    1.3857    2.4000    0.0000 H   0  0  0  0  0  0  0  0  0  0  0  0
    1.3857    0.8000    0.0000 H   0  0  0  0  0  0  0  0  0  0  0  0
   -0.0001    0.0000    0.0000 C   0  0  0  0  0  0  0  0  0  0  0  0
   -0.0001   -1.6000    0.0000 H   0  0  0  0  0  0  0  0  0  0  0  0
   -1.6000    0.0000    0.0000 C   0  0  0  0  0  0  0  0  0  0  0  0
   -2.4000    1.3856    0.0000 C   0  0  0  0  0  0  0  0  0  0  0  0
   -1.6000    2.7713    0.0000 H   0  0  0  0  0  0  0  0  0  0  0  0
   -3.9999    1.3856    0.0000 C   0  0  0  0  0  0  0  0  0  0  0  0
   -4.8000    2.7713    0.0000 H   0  0  0  0  0  0  0  0  0  0  0  0
   -4.8000    0.0000    0.0000 C   0  0  0  0  0  0  0  0  0  0  0  0
   -6.4001    0.0000    0.0000 C   0  0  0  0  0  0  0  0  0  0  0  0
   -7.6693    0.9740    0.0000 H   0  0  0  0  0  0  0  0  0  0  0  0
   -6.6089    1.5863    0.0000 H   0  0  0  0  0  0  0  0  0  0  0  0
   -7.1999   -1.3857    0.0000 O   0  0  0  0  0  0  0  0  0  0  0  0
   -8.8000   -1.3857    0.0000 H   0  0  0  0  0  0  0  0  0  0  0  0
   -3.9999   -1.3857    0.0000 C   0  0  0  0  0  0  0  0  0  0  0  0
   -4.8000   -2.7713    0.0000 H   0  0  0  0  0  0  0  0  0  0  0  0
   -2.4000   -1.3857    0.0000 C   0  0  0  0  0  0  0  0  0  0  0  0
   -1.6000   -2.7713    0.0000 H   0  0  0  0  0  0  0  0  0  0  0  0
    1.5757   -0.2778    0.0000 C   0  0  0  0  0  0  0  0  0  0  0  0
    3.1514   -0.5557    0.0000 H   0  0  0  0  0  0  0  0  0  0  0  0
    2.1228   -1.7813    0.0000 H   0  0  0  0  0  0  0  0  0  0  0  0
    2.6041    0.9478    0.0000 H   0  0  0  0  0  0  0  0  0  0  0  0
  1  2  1  0  0  0  0
  1  3  1  0  0  0  0
  1  4  1  0  0  0  0
  1  5  1  0  0  0  0
  5  6  1  0  0  0  0
  5  7  1  0  0  0  0
  7  8  1  0  0  0  0
  8  9  1  0  0  0  0
  8 10  2  0  0  0  0
 10 11  1  0  0  0  0
 10 12  1  0  0  0  0
 12 13  1  0  0  0  0
 13 14  1  0  0  0  0
 13 15  1  0  0  0  0
 13 16  1  0  0  0  0
 16 17  1  0  0  0  0
 12 18  2  0  0  0  0
 18 19  1  0  0  0  0
 18 20  1  0  0  0  0
 20  7  2  0  0  0  0
 20 21  1  0  0  0  0
  5 22  1  0  0  0  0
 22 23  1  0  0  0  0
 22 24  1  0  0  0  0
 22 25  1  0  0  0  0
M  END
> <ChemID>
100797

> <source_casrn>
536-60-7

> <CAS>
536-60-7

> <SMILES>
CC(C)c1ccc(CO)cc1

> <NAME>
Benzenemethanol, 4-(1-methylethyl)-

> <preferred_name>
4-Isopropylbenzyl alcohol

> <iupac>
[4-(propan-2-yl)phenyl]methanol

> <MPID>
100804

> <dsstox_substance_id>
DTXSID0021626

> <Canonical_QSARr>
CC(C)c1ccc(CO)cc1

> <InChI_Code_QSARr>
InChI=1S/C10H14O/c1-8(2)10-5-3-9(7-11)4-6-10/h3-6,8,11H,7H2,1-2H3

> <InChI Key_QSARr>
OIGWAXDAPKFNCQ-UHFFFAOYSA-N

> <Salt_Solvent>
?

> <Ready_Biodeg>
1.0

$$$$
100801
  -INDIGO-08031722522D

 13 13  0  0  0  0  0  0  0  0999 V2000
    1.6000   -0.0000    0.0000 C   0  0  0  0  0  0  0  0  0  0  0  0
    2.4000    1.3856    0.0000 H   0  0  0  0  0  0  0  0  0  0  0  0
    2.4000   -1.3857    0.0000 C   0  0  0  0  0  0  0  0  0  0  0  0
    4.0000   -1.3857    0.0000 H   0  0  0  0  0  0  0  0  0  0  0  0
    1.6000   -2.7713    0.0000 C   0  0  0  0  0  0  0  0  0  0  0  0
    2.4000   -4.1569    0.0000 I   0  0  0  0  0  0  0  0  0  0  0  0
    0.0000   -2.7713    0.0000 C   0  0  0  0  0  0  0  0  0  0  0  0
   -0.8000   -4.1569    0.0000 H   0  0  0  0  0  0  0  0  0  0  0  0
   -0.8000   -1.3856    0.0000 C   0  0  0  0  0  0  0  0  0  0  0  0
   -2.4000   -1.3856    0.0000 H   0  0  0  0  0  0  0  0  0  0  0  0
    0.0000   -0.0000    0.0000 C   0  0  0  0  0  0  0  0  0  0  0  0
   -0.8000    1.3856    0.0000 O   0  0  0  0  0  0  0  0  0  0  0  0
   -2.4000    1.3856    0.0000 H   0  0  0  0  0  0  0  0  0  0  0  0
  1  2  1  0  0  0  0
  1  3  1  0  0  0  0
  3  4  1  0  0  0  0
  3  5  2  0  0  0  0
  5  6  1  0  0  0  0
  5  7  1  0  0  0  0
  7  8  1  0  0  0  0
  7  9  2  0  0  0  0
  9 10  1  0  0  0  0
  9 11  1  0  0  0  0
 11  1  2  0  0  0  0
 11 12  1  0  0  0  0
 12 13  1  0  0  0  0
M  END
> <ChemID>
100801

> <source_casrn>
540-38-5

> <CAS>
540-38-5

> <SMILES>
Oc1ccc(I)cc1

> <NAME>
4-IODOPHENOL

> <preferred_name>
4-Iodophenol

> <iupac>
4-iodophenol

> <MPID>
100808

> <dsstox_substance_id>
DTXSID4052186

> <Canonical_QSARr>
Oc1ccc(I)cc1

> <InChI_Code_QSARr>
InChI=1S/C6H5IO/c7-5-1-3-6(8)4-2-5/h1-4,8H

> <InChI Key_QSARr>
VSMDINRNYYEDRN-UHFFFAOYSA-N

> <Salt_Solvent>
?

> <Ready_Biodeg>
0.0

$$$$
100805
  -INDIGO-08031722522D

 12 12  0  0  0  0  0  0  0  0999 V2000
    0.8000    1.3856    0.0000 Cl  0  0  0  0  0  0  0  0  0  0  0  0
   -0.0000   -0.0000    0.0000 C   0  0  0  0  0  0  0  0  0  0  0  0
    0.8000   -1.3857    0.0000 C   0  0  0  0  0  0  0  0  0  0  0  0
    2.4000   -1.3857    0.0000 H   0  0  0  0  0  0  0  0  0  0  0  0
   -0.0000   -2.7713    0.0000 C   0  0  0  0  0  0  0  0  0  0  0  0
    0.8000   -4.1569    0.0000 Cl  0  0  0  0  0  0  0  0  0  0  0  0
   -1.6000   -2.7713    0.0000 C   0  0  0  0  0  0  0  0  0  0  0  0
   -2.4000   -4.1569    0.0000 H   0  0  0  0  0  0  0  0  0  0  0  0
   -2.4000   -1.3856    0.0000 C   0  0  0  0  0  0  0  0  0  0  0  0
   -4.0000   -1.3856    0.0000 H   0  0  0  0  0  0  0  0  0  0  0  0
   -1.6000   -0.0000    0.0000 C   0  0  0  0  0  0  0  0  0  0  0  0
   -2.4000    1.3856    0.0000 H   0  0  0  0  0  0  0  0  0  0  0  0
  1  2  1  0  0  0  0
  2  3  1  0  0  0  0
  3  4  1  0  0  0  0
  3  5  2  0  0  0  0
  5  6  1  0  0  0  0
  5  7  1  0  0  0  0
  7  8  1  0  0  0  0
  7  9  2  0  0  0  0
  9 10  1  0  0  0  0
  9 11  1  0  0  0  0
 11  2  2  0  0  0  0
 11 12  1  0  0  0  0
M  END
> <ChemID>
100805

> <source_casrn>
541-73-1

> <CAS>
541-73-1

> <SMILES>
Clc1cc(Cl)ccc1

> <NAME>
Benzene, 1,3-dichloro-

> <preferred_name>
1,3-Dichlorobenzene

> <iupac>
1,3-dichlorobenzene

> <MPID>
100812

> <dsstox_substance_id>
DTXSID6022056

> <Canonical_QSARr>
Clc1cc(Cl)ccc1

> <InChI_Code_QSARr>
InChI=1S/C6H4Cl2/c7-5-2-1-3-6(8)4-5/h1-4H

> <InChI Key_QSARr>
ZPQOPVIELGIULI-UHFFFAOYSA-N

> <Salt_Solvent>
?

> <Ready_Biodeg>
0.0

$$$$
100809
  -INDIGO-08031722522D

 33 32  0  0  0  0  0  0  0  0999 V2000
   -0.0001   -0.0000    0.0000 C   0  0  0  0  0  0  0  0  0  0  0  0
    0.7999   -1.3857    0.0000 H   0  0  0  0  0  0  0  0  0  0  0  0
    1.5036    0.5473    0.0000 C   0  0  0  0  0  0  0  0  0  0  0  0
    1.1573    2.1093    0.0000 H   0  0  0  0  0  0  0  0  0  0  0  0
    2.3633    1.8967    0.0000 H   0  0  0  0  0  0  0  0  0  0  0  0
    2.7292   -0.4812    0.0000 C   0  0  0  0  0  0  0  0  0  0  0  0
    3.0755   -2.0433    0.0000 H   0  0  0  0  0  0  0  0  0  0  0  0
    1.8695   -1.8307    0.0000 H   0  0  0  0  0  0  0  0  0  0  0  0
    4.2326    0.0660    0.0000 O   0  0  0  0  0  0  0  0  0  0  0  0
    5.4584   -0.9625    0.0000 C   0  0  0  0  0  0  0  0  0  0  0  0
    5.8047   -2.5245    0.0000 H   0  0  0  0  0  0  0  0  0  0  0  0
    4.5987   -2.3119    0.0000 H   0  0  0  0  0  0  0  0  0  0  0  0
    6.9618   -0.4152    0.0000 C   0  0  0  0  0  0  0  0  0  0  0  0
    6.6156    1.1469    0.0000 H   0  0  0  0  0  0  0  0  0  0  0  0
    7.8215    0.9342    0.0000 H   0  0  0  0  0  0  0  0  0  0  0  0
    8.1875   -1.4437    0.0000 C   0  0  0  0  0  0  0  0  0  0  0  0
    6.9618   -2.4722    0.0000 H   0  0  0  0  0  0  0  0  0  0  0  0
    9.2159   -2.6694    0.0000 C   0  0  0  0  0  0  0  0  0  0  0  0
   10.2444   -3.8950    0.0000 H   0  0  0  0  0  0  0  0  0  0  0  0
   10.7916   -2.3916    0.0000 H   0  0  0  0  0  0  0  0  0  0  0  0
    8.6687   -4.1729    0.0000 H   0  0  0  0  0  0  0  0  0  0  0  0
    9.4133   -0.4152    0.0000 C   0  0  0  0  0  0  0  0  0  0  0  0
   10.6389    0.6133    0.0000 H   0  0  0  0  0  0  0  0  0  0  0  0
    9.1353    1.1605    0.0000 H   0  0  0  0  0  0  0  0  0  0  0  0
   10.9167   -0.9625    0.0000 H   0  0  0  0  0  0  0  0  0  0  0  0
   -1.3857   -0.8000    0.0000 C   0  0  0  0  0  0  0  0  0  0  0  0
   -2.7713   -1.6000    0.0000 H   0  0  0  0  0  0  0  0  0  0  0  0
   -1.3857   -2.4000    0.0000 H   0  0  0  0  0  0  0  0  0  0  0  0
   -2.7713   -0.0000    0.0000 H   0  0  0  0  0  0  0  0  0  0  0  0
   -0.8000    1.3856    0.0000 C   0  0  0  0  0  0  0  0  0  0  0  0
   -1.6000    2.7713    0.0000 H   0  0  0  0  0  0  0  0  0  0  0  0
   -0.0001    2.7713    0.0000 H   0  0  0  0  0  0  0  0  0  0  0  0
   -2.3999    1.3856    0.0000 H   0  0  0  0  0  0  0  0  0  0  0  0
  1  2  1  0  0  0  0
  1  3  1  0  0  0  0
  3  4  1  0  0  0  0
  3  5  1  0  0  0  0
  3  6  1  0  0  0  0
  6  7  1  0  0  0  0
  6  8  1  0  0  0  0
  6  9  1  0  0  0  0
  9 10  1  0  0  0  0
 10 11  1  0  0  0  0
 10 12  1  0  0  0  0
 10 13  1  0  0  0  0
 13 14  1  0  0  0  0
 13 15  1  0  0  0  0
 13 16  1  0  0  0  0
 16 17  1  0  0  0  0
 16 18  1  0  0  0  0
 18 19  1  0  0  0  0
 18 20  1  0  0  0  0
 18 21  1  0  0  0  0
 16 22  1  0  0  0  0
 22 23  1  0  0  0  0
 22 24  1  0  0  0  0
 22 25  1  0  0  0  0
  1 26  1  0  0  0  0
 26 27  1  0  0  0  0
 26 28  1  0  0  0  0
 26 29  1  0  0  0  0
  1 30  1  0  0  0  0
 30 31  1  0  0  0  0
 30 32  1  0  0  0  0
 30 33  1  0  0  0  0
M  END
> <ChemID>
100809

> <source_casrn>
544-01-4

> <CAS>
544-01-4

> <SMILES>
O(CCC(C)C)CCC(C)C

> <NAME>
Butane, 1,1'-oxybis 3-methyl-

> <preferred_name>
Isoamyl ether

> <iupac>
bis(3-methylbutyl) ether

> <MPID>
100816

> <dsstox_substance_id>
DTXSID8052198

> <Canonical_QSARr>
CC(C)CCOCCC(C)C

> <InChI_Code_QSARr>
InChI=1S/C10H22O/c1-9(2)5-7-11-8-6-10(3)4/h9-10H,5-8H2,1-4H3

> <InChI Key_QSARr>
AQZGPSLYZOOYQP-UHFFFAOYSA-N

> <Salt_Solvent>
?

> <Ready_Biodeg>
0.0

$$$$
100816
  -INDIGO-08031722522D

 19 18  0  0  0  0  0  0  0  0999 V2000
   -1.3857    2.4000    0.0000 O   0  0  0  0  0  0  0  0  0  0  0  0
    0.0000    1.6000    0.0000 N   0  0  0  0  0  0  0  0  0  0  0  0
    1.2256    2.6285    0.0000 O   0  0  0  0  0  0  0  0  0  0  0  0
    0.0000    0.0000    0.0000 C   0  0  0  0  0  0  0  0  0  0  0  0
    0.0000   -1.6000    0.0000 H   0  0  0  0  0  0  0  0  0  0  0  0
    1.6000    0.0000    0.0000 C   0  0  0  0  0  0  0  0  0  0  0  0
    2.8693    0.9740    0.0000 H   0  0  0  0  0  0  0  0  0  0  0  0
    1.8089    1.5863    0.0000 H   0  0  0  0  0  0  0  0  0  0  0  0
    2.4000   -1.3857    0.0000 C   0  0  0  0  0  0  0  0  0  0  0  0
    3.2000   -2.7713    0.0000 H   0  0  0  0  0  0  0  0  0  0  0  0
    4.0000   -1.3857    0.0000 H   0  0  0  0  0  0  0  0  0  0  0  0
    1.6000   -2.7713    0.0000 H   0  0  0  0  0  0  0  0  0  0  0  0
   -1.5756   -0.2778    0.0000 C   0  0  0  0  0  0  0  0  0  0  0  0
   -2.0568    1.2481    0.0000 H   0  0  0  0  0  0  0  0  0  0  0  0
   -2.9950    0.4609    0.0000 H   0  0  0  0  0  0  0  0  0  0  0  0
   -2.1229   -1.7813    0.0000 C   0  0  0  0  0  0  0  0  0  0  0  0
   -2.6701   -3.2849    0.0000 H   0  0  0  0  0  0  0  0  0  0  0  0
   -3.6986   -2.0592    0.0000 H   0  0  0  0  0  0  0  0  0  0  0  0
   -1.0945   -3.0070    0.0000 H   0  0  0  0  0  0  0  0  0  0  0  0
  1  2  2  0  0  0  0
  2  3  1  0  0  0  0
  2  4  1  0  0  0  0
  4  5  1  0  0  0  0
  4  6  1  0  0  0  0
  6  7  1  0  0  0  0
  6  8  1  0  0  0  0
  6  9  1  0  0  0  0
  9 10  1  0  0  0  0
  9 11  1  0  0  0  0
  9 12  1  0  0  0  0
  4 13  1  0  0  0  0
 13 14  1  0  0  0  0
 13 15  1  0  0  0  0
 13 16  1  0  0  0  0
 16 17  1  0  0  0  0
 16 18  1  0  0  0  0
 16 19  1  0  0  0  0
M  CHG  2   2   1   3  -1
M  END
> <ChemID>
100816

> <source_casrn>
551-88-2

> <CAS>
551-88-2

> <SMILES>
CCC(CC)[N+]([O-])=O

> <NAME>
3-Nitropentane

> <preferred_name>
3-Nitropentane

> <iupac>
3-nitropentane

> <MPID>
100821

> <dsstox_substance_id>
DTXSID2020979

> <Canonical_QSARr>
CCC(CC)[N+]([O-])=O

> <InChI_Code_QSARr>
InChI=1S/C5H11NO2/c1-3-5(4-2)6(7)8/h5H,3-4H2,1-2H3

> <InChI Key_QSARr>
RXPKOTQRDGEKFY-UHFFFAOYSA-N

> <Salt_Solvent>
?

> <Ready_Biodeg>
1.0

$$$$
100820
  -INDIGO-08031722522D

 15 15  0  0  0  0  0  0  0  0999 V2000
    3.2000    2.7713    0.0000 O   0  0  0  0  0  0  0  0  0  0  0  0
    4.8000    2.7713    0.0000 H   0  0  0  0  0  0  0  0  0  0  0  0
    2.4000    1.3856    0.0000 C   0  0  0  0  0  0  0  0  0  0  0  0
    3.2000   -0.0000    0.0000 C   0  0  0  0  0  0  0  0  0  0  0  0
    4.8000   -0.0000    0.0000 H   0  0  0  0  0  0  0  0  0  0  0  0
    2.4000   -1.3856    0.0000 C   0  0  0  0  0  0  0  0  0  0  0  0
    3.2000   -2.7713    0.0000 H   0  0  0  0  0  0  0  0  0  0  0  0
    0.8000   -1.3856    0.0000 C   0  0  0  0  0  0  0  0  0  0  0  0
    0.0000   -2.7713    0.0000 H   0  0  0  0  0  0  0  0  0  0  0  0
    0.0000   -0.0000    0.0000 C   0  0  0  0  0  0  0  0  0  0  0  0
   -1.6000   -0.0000    0.0000 N   0  0  0  0  0  0  0  0  0  0  0  0
   -2.4000   -1.3856    0.0000 O   0  0  0  0  0  0  0  0  0  0  0  0
   -2.4000    1.3856    0.0000 O   0  0  0  0  0  0  0  0  0  0  0  0
    0.8000    1.3856    0.0000 C   0  0  0  0  0  0  0  0  0  0  0  0
    0.0000    2.7713    0.0000 H   0  0  0  0  0  0  0  0  0  0  0  0
  1  2  1  0  0  0  0
  1  3  1  0  0  0  0
  3  4  1  0  0  0  0
  4  5  1  0  0  0  0
  4  6  2  0  0  0  0
  6  7  1  0  0  0  0
  6  8  1  0  0  0  0
  8  9  1  0  0  0  0
  8 10  2  0  0  0  0
 10 11  1  0  0  0  0
 11 12  1  0  0  0  0
 11 13  2  0  0  0  0
 10 14  1  0  0  0  0
 14  3  2  0  0  0  0
 14 15  1  0  0  0  0
M  CHG  2  11   1  12  -1
M  END
> <ChemID>
100820

> <source_casrn>
554-84-7

> <CAS>
554-84-7

> <SMILES>
[O-][N+](=O)c1cccc(O)c1

> <NAME>
Phenol, 3-nitro-

> <preferred_name>
3-Nitrophenol

> <iupac>
3-nitrophenol

> <MPID>
100825

> <dsstox_substance_id>
DTXSID2025765

> <Canonical_QSARr>
[O-][N+](=O)c1cccc(O)c1

> <InChI_Code_QSARr>
InChI=1S/C6H5NO3/c8-6-3-1-2-5(4-6)7(9)10/h1-4,8H

> <InChI Key_QSARr>
RTZZCYNQPHTPPL-UHFFFAOYSA-N

> <Salt_Solvent>
?

> <Ready_Biodeg>
1.0

$$$$
100825
  -INDIGO-08031722522D

 47 49  0  0  0  0  0  0  0  0999 V2000
    7.0584   -0.9624    0.0000 C   0  0  0  0  0  0  0  0  0  0  0  0
    8.5619   -0.4152    0.0000 H   0  0  0  0  0  0  0  0  0  0  0  0
    8.2841   -1.9910    0.0000 H   0  0  0  0  0  0  0  0  0  0  0  0
    7.3362    0.6132    0.0000 H   0  0  0  0  0  0  0  0  0  0  0  0
    5.5548   -1.5097    0.0000 C   0  0  0  0  0  0  0  0  0  0  0  0
    5.2770   -3.0853    0.0000 C   0  0  0  0  0  0  0  0  0  0  0  0
    6.5027   -4.1139    0.0000 H   0  0  0  0  0  0  0  0  0  0  0  0
    3.7736   -3.6326    0.0000 C   0  0  0  0  0  0  0  0  0  0  0  0
    3.4956   -5.2082    0.0000 H   0  0  0  0  0  0  0  0  0  0  0  0
    2.5479   -2.6041    0.0000 C   0  0  0  0  0  0  0  0  0  0  0  0
    1.0443   -3.1514    0.0000 H   0  0  0  0  0  0  0  0  0  0  0  0
    2.8257   -1.0285    0.0000 C   0  0  0  0  0  0  0  0  0  0  0  0
    1.6000    0.0001    0.0000 O   0  0  0  0  0  0  0  0  0  0  0  0
    0.0000    0.0001    0.0000 P   0  0  0  0  0  0  0  0  0  0  0  0
   -0.8001    1.3856    0.0000 O   0  0  0  0  0  0  0  0  0  0  0  0
    0.7999    1.3856    0.0000 O   0  0  0  0  0  0  0  0  0  0  0  0
    0.0000    2.7713    0.0000 C   0  0  0  0  0  0  0  0  0  0  0  0
   -1.5999    2.7713    0.0000 C   0  0  0  0  0  0  0  0  0  0  0  0
   -2.4000    1.3856    0.0000 H   0  0  0  0  0  0  0  0  0  0  0  0
   -2.4000    4.1570    0.0000 C   0  0  0  0  0  0  0  0  0  0  0  0
   -4.0000    4.1570    0.0000 C   0  0  0  0  0  0  0  0  0  0  0  0
   -4.8001    5.5425    0.0000 H   0  0  0  0  0  0  0  0  0  0  0  0
   -3.1999    5.5425    0.0000 H   0  0  0  0  0  0  0  0  0  0  0  0
   -5.5999    4.1570    0.0000 H   0  0  0  0  0  0  0  0  0  0  0  0
   -1.5999    5.5425    0.0000 C   0  0  0  0  0  0  0  0  0  0  0  0
   -2.4000    6.9282    0.0000 H   0  0  0  0  0  0  0  0  0  0  0  0
    0.0000    5.5425    0.0000 C   0  0  0  0  0  0  0  0  0  0  0  0
    0.7999    6.9282    0.0000 H   0  0  0  0  0  0  0  0  0  0  0  0
    0.7999    4.1570    0.0000 C   0  0  0  0  0  0  0  0  0  0  0  0
    2.4001    4.1570    0.0000 H   0  0  0  0  0  0  0  0  0  0  0  0
   -1.5999    0.0001    0.0000 O   0  0  0  0  0  0  0  0  0  0  0  0
   -2.4000   -1.3856    0.0000 C   0  0  0  0  0  0  0  0  0  0  0  0
   -4.0000   -1.3856    0.0000 C   0  0  0  0  0  0  0  0  0  0  0  0
   -4.8001    0.0001    0.0000 H   0  0  0  0  0  0  0  0  0  0  0  0
   -4.8001   -2.7713    0.0000 C   0  0  0  0  0  0  0  0  0  0  0  0
   -6.4000   -2.7713    0.0000 C   0  0  0  0  0  0  0  0  0  0  0  0
   -8.0000   -2.7713    0.0000 H   0  0  0  0  0  0  0  0  0  0  0  0
   -7.1999   -4.1569    0.0000 H   0  0  0  0  0  0  0  0  0  0  0  0
   -7.1999   -1.3856    0.0000 H   0  0  0  0  0  0  0  0  0  0  0  0
   -4.0000   -4.1569    0.0000 C   0  0  0  0  0  0  0  0  0  0  0  0
   -4.8001   -5.5426    0.0000 H   0  0  0  0  0  0  0  0  0  0  0  0
   -2.4000   -4.1569    0.0000 C   0  0  0  0  0  0  0  0  0  0  0  0
   -1.5999   -5.5426    0.0000 H   0  0  0  0  0  0  0  0  0  0  0  0
   -1.5999   -2.7713    0.0000 C   0  0  0  0  0  0  0  0  0  0  0  0
    0.0000   -2.7713    0.0000 H   0  0  0  0  0  0  0  0  0  0  0  0
    4.3291   -0.4812    0.0000 C   0  0  0  0  0  0  0  0  0  0  0  0
    4.6071    1.0944    0.0000 H   0  0  0  0  0  0  0  0  0  0  0  0
  1  2  1  0  0  0  0
  1  3  1  0  0  0  0
  1  4  1  0  0  0  0
  1  5  1  0  0  0  0
  5  6  1  0  0  0  0
  6  7  1  0  0  0  0
  6  8  2  0  0  0  0
  8  9  1  0  0  0  0
  8 10  1  0  0  0  0
 10 11  1  0  0  0  0
 10 12  2  0  0  0  0
 12 13  1  0  0  0  0
 13 14  1  0  0  0  0
 14 15  2  0  0  0  0
 14 16  1  0  0  0  0
 16 17  1  0  0  0  0
 17 18  1  0  0  0  0
 18 19  1  0  0  0  0
 18 20  2  0  0  0  0
 20 21  1  0  0  0  0
 21 22  1  0  0  0  0
 21 23  1  0  0  0  0
 21 24  1  0  0  0  0
 20 25  1  0  0  0  0
 25 26  1  0  0  0  0
 25 27  2  0  0  0  0
 27 28  1  0  0  0  0
 27 29  1  0  0  0  0
 29 17  2  0  0  0  0
 29 30  1  0  0  0  0
 14 31  1  0  0  0  0
 31 32  1  0  0  0  0
 32 33  1  0  0  0  0
 33 34  1  0  0  0  0
 33 35  2  0  0  0  0
 35 36  1  0  0  0  0
 36 37  1  0  0  0  0
 36 38  1  0  0  0  0
 36 39  1  0  0  0  0
 35 40  1  0  0  0  0
 40 41  1  0  0  0  0
 40 42  2  0  0  0  0
 42 43  1  0  0  0  0
 42 44  1  0  0  0  0
 44 32  2  0  0  0  0
 44 45  1  0  0  0  0
 12 46  1  0  0  0  0
 46  5  2  0  0  0  0
 46 47  1  0  0  0  0
M  END
> <ChemID>
100825

> <source_casrn>
563-04-2

> <CAS>
563-04-2

> <SMILES>
O=P(Oc(cccc1C)c1)(Oc(cccc2C)c2)Oc(cccc3C)c3

> <NAME>
TRI-M-CRESYL PHOSPHATE

> <preferred_name>
Tri-m-tolyl phosphate

> <iupac>
tris(3-methylphenyl) phosphate

> <MPID>
100830

> <dsstox_substance_id>
DTXSID4026216

> <Canonical_QSARr>
Cc1cc(ccc1)OP(=O)(Oc1cc(C)ccc1)Oc1cc(C)ccc1

> <InChI_Code_QSARr>
InChI=1S/C21H21O4P/c1-16-7-4-10-19(13-16)23-26(22,24-20-11-5-8-17(2)14-20)25-21-12-6-9-18(3)15-21/h4-15H,1-3H3

> <InChI Key_QSARr>
RMLPZKRPSQVRAB-UHFFFAOYSA-N

> <Salt_Solvent>
?

> <Ready_Biodeg>
1.0

$$$$
100830
  -INDIGO-08031722522D

 27 28  0  0  0  0  0  0  0  0999 V2000
    3.3569    2.1857    0.0000 O   0  0  0  0  0  0  0  0  0  0  0  0
    4.1569    0.8000    0.0000 S   0  0  0  0  0  0  0  0  0  0  0  0
    4.9570   -0.5857    0.0000 O   0  0  0  0  0  0  0  0  0  0  0  0
    5.5427    1.6000    0.0000 O   0  0  0  0  0  0  0  0  0  0  0  0
    6.9282    0.8000    0.0000 H   0  0  0  0  0  0  0  0  0  0  0  0
    2.7714    0.0000    0.0000 C   0  0  0  0  0  0  0  0  0  0  0  0
    2.7714   -1.6000    0.0000 C   0  0  0  0  0  0  0  0  0  0  0  0
    4.1569   -2.4000    0.0000 H   0  0  0  0  0  0  0  0  0  0  0  0
    1.3856   -2.4000    0.0000 C   0  0  0  0  0  0  0  0  0  0  0  0
    1.3856   -4.0000    0.0000 O   0  0  0  0  0  0  0  0  0  0  0  0
    2.7714   -4.8000    0.0000 H   0  0  0  0  0  0  0  0  0  0  0  0
    0.0001   -1.6000    0.0000 C   0  0  0  0  0  0  0  0  0  0  0  0
    0.0001    0.0000    0.0000 C   0  0  0  0  0  0  0  0  0  0  0  0
   -1.3856    0.8000    0.0000 C   0  0  0  0  0  0  0  0  0  0  0  0
   -1.3856    2.4000    0.0000 H   0  0  0  0  0  0  0  0  0  0  0  0
   -2.7712    0.0000    0.0000 C   0  0  0  0  0  0  0  0  0  0  0  0
   -4.1569    0.8000    0.0000 S   0  0  0  0  0  0  0  0  0  0  0  0
   -4.9570   -0.5857    0.0000 O   0  0  0  0  0  0  0  0  0  0  0  0
   -3.3569    2.1857    0.0000 O   0  0  0  0  0  0  0  0  0  0  0  0
   -5.5425    1.6000    0.0000 O   0  0  0  0  0  0  0  0  0  0  0  0
   -6.9282    0.8000    0.0000 H   0  0  0  0  0  0  0  0  0  0  0  0
   -2.7712   -1.6000    0.0000 C   0  0  0  0  0  0  0  0  0  0  0  0
   -4.1569   -2.4000    0.0000 H   0  0  0  0  0  0  0  0  0  0  0  0
   -1.3856   -2.4000    0.0000 C   0  0  0  0  0  0  0  0  0  0  0  0
   -1.3856   -4.0000    0.0000 H   0  0  0  0  0  0  0  0  0  0  0  0
    1.3856    0.8000    0.0000 C   0  0  0  0  0  0  0  0  0  0  0  0
    1.3856    2.4000    0.0000 H   0  0  0  0  0  0  0  0  0  0  0  0
  1  2  2  0  0  0  0
  2  3  2  0  0  0  0
  2  4  1  0  0  0  0
  4  5  1  0  0  0  0
  2  6  1  0  0  0  0
  6  7  1  0  0  0  0
  7  8  1  0  0  0  0
  7  9  2  0  0  0  0
  9 10  1  0  0  0  0
 10 11  1  0  0  0  0
  9 12  1  0  0  0  0
 12 13  1  0  0  0  0
 13 14  2  0  0  0  0
 14 15  1  0  0  0  0
 14 16  1  0  0  0  0
 16 17  1  0  0  0  0
 17 18  2  0  0  0  0
 17 19  2  0  0  0  0
 17 20  1  0  0  0  0
 20 21  1  0  0  0  0
 16 22  2  0  0  0  0
 22 23  1  0  0  0  0
 22 24  1  0  0  0  0
 24 12  2  0  0  0  0
 24 25  1  0  0  0  0
 13 26  1  0  0  0  0
 26  6  2  0  0  0  0
 26 27  1  0  0  0  0
M  END
> <ChemID>
100830

> <source_casrn>
578-85-8

> <CAS>
578-85-8

> <SMILES>
Oc1cc(cc2cc(ccc12)S(O)(=O)=O)S(O)(=O)=O

> <NAME>
1-Naphthol-3,6-disulfonic acid

> <preferred_name>
2,7-Naphthalenedisulfonic acid, 4-hydroxy-

> <iupac>
4-hydroxynaphthalene-2,7-disulfonic acid

> <MPID>
100834

> <dsstox_substance_id>
DTXSID3060370

> <Canonical_QSARr>
Oc1cc(cc2cc(ccc12)S(O)(=O)=O)S(O)(=O)=O

> <InChI_Code_QSARr>
InChI=1S/C10H8O7S2/c11-10-5-8(19(15,16)17)4-6-3-7(18(12,13)14)1-2-9(6)10/h1-5,11H,(H,12,13,14)(H,15,16,17)

> <InChI Key_QSARr>
TZBROGJRQUABOK-UHFFFAOYSA-N

> <Salt_Solvent>
?

> <Ready_Biodeg>
1.0

$$$$
100834
  -INDIGO-08031722522D

 16 17  0  0  0  0  0  0  0  0999 V2000
   -4.0621   -0.8000    0.0000 S   0  0  0  0  0  0  0  0  0  0  0  0
   -2.4621   -0.8000    0.0000 C   0  0  0  0  0  0  0  0  0  0  0  0
   -1.5217   -2.0944    0.0000 N   0  0  0  0  0  0  0  0  0  0  0  0
   -2.0161   -3.6161    0.0000 H   0  0  0  0  0  0  0  0  0  0  0  0
    0.0000   -1.6000    0.0000 C   0  0  0  0  0  0  0  0  0  0  0  0
    0.0000   -0.0000    0.0000 C   0  0  0  0  0  0  0  0  0  0  0  0
    1.3856    0.8000    0.0000 C   0  0  0  0  0  0  0  0  0  0  0  0
    1.3856    2.4000    0.0000 H   0  0  0  0  0  0  0  0  0  0  0  0
    2.7713   -0.0000    0.0000 C   0  0  0  0  0  0  0  0  0  0  0  0
    4.1569    0.8000    0.0000 H   0  0  0  0  0  0  0  0  0  0  0  0
    2.7713   -1.6000    0.0000 C   0  0  0  0  0  0  0  0  0  0  0  0
    4.1569   -2.4000    0.0000 H   0  0  0  0  0  0  0  0  0  0  0  0
    1.3856   -2.4000    0.0000 C   0  0  0  0  0  0  0  0  0  0  0  0
    1.3856   -4.0000    0.0000 H   0  0  0  0  0  0  0  0  0  0  0  0
   -1.5217    0.4944    0.0000 N   0  0  0  0  0  0  0  0  0  0  0  0
   -2.0161    2.0161    0.0000 H   0  0  0  0  0  0  0  0  0  0  0  0
  1  2  2  0  0  0  0
  2  3  1  0  0  0  0
  3  4  1  0  0  0  0
  3  5  1  0  0  0  0
  5  6  1  0  0  0  0
  6  7  2  0  0  0  0
  7  8  1  0  0  0  0
  7  9  1  0  0  0  0
  9 10  1  0  0  0  0
  9 11  2  0  0  0  0
 11 12  1  0  0  0  0
 11 13  1  0  0  0  0
 13  5  2  0  0  0  0
 13 14  1  0  0  0  0
  6 15  1  0  0  0  0
 15  2  1  0  0  0  0
 15 16  1  0  0  0  0
M  END
> <ChemID>
100834

> <source_casrn>
583-39-1

> <CAS>
583-39-1

> <SMILES>
S=C1Nc2ccccc2N1

> <NAME>
2H-Benzimidazole-2-thione, 1,3-dihydro-

> <preferred_name>
2-Mercaptobenzimidazole

> <iupac>
1,3-dihydro-2H-benzimidazole-2-thione

> <MPID>
100838

> <dsstox_substance_id>
DTXSID9025536

> <Canonical_QSARr>
S=C1Nc2ccccc2N1

> <InChI_Code_QSARr>
InChI=1S/C7H6N2S/c10-7-8-5-3-1-2-4-6(5)9-7/h1-4H,(H2,8,9,10)

> <InChI Key_QSARr>
YHMYGUUIMTVXNW-UHFFFAOYSA-N

> <Salt_Solvent>
?

> <Ready_Biodeg>
0.0

$$$$
100838
  -INDIGO-08031722522D

 18 18  0  0  0  0  0  0  0  0999 V2000
    4.1569    2.4000    0.0000 O   0  0  0  0  0  0  0  0  0  0  0  0
    4.1569    0.8000    0.0000 N   0  0  0  0  0  0  0  0  0  0  0  0
    5.5426   -0.0000    0.0000 O   0  0  0  0  0  0  0  0  0  0  0  0
    2.7713   -0.0000    0.0000 C   0  0  0  0  0  0  0  0  0  0  0  0
    1.3857    0.8000    0.0000 C   0  0  0  0  0  0  0  0  0  0  0  0
    1.3857    2.4000    0.0000 H   0  0  0  0  0  0  0  0  0  0  0  0
   -0.0001   -0.0000    0.0000 C   0  0  0  0  0  0  0  0  0  0  0  0
   -1.3857    0.8000    0.0000 C   0  0  0  0  0  0  0  0  0  0  0  0
   -1.3857    2.4000    0.0000 H   0  0  0  0  0  0  0  0  0  0  0  0
   -2.7713   -0.0000    0.0000 C   0  0  0  0  0  0  0  0  0  0  0  0
   -4.1569    0.8000    0.0000 H   0  0  0  0  0  0  0  0  0  0  0  0
   -2.7713   -1.6000    0.0000 H   0  0  0  0  0  0  0  0  0  0  0  0
   -0.0001   -1.6000    0.0000 C   0  0  0  0  0  0  0  0  0  0  0  0
   -1.3857   -2.4000    0.0000 H   0  0  0  0  0  0  0  0  0  0  0  0
    1.3857   -2.4000    0.0000 C   0  0  0  0  0  0  0  0  0  0  0  0
    1.3857   -4.0000    0.0000 H   0  0  0  0  0  0  0  0  0  0  0  0
    2.7713   -1.6000    0.0000 C   0  0  0  0  0  0  0  0  0  0  0  0
    4.1569   -2.4000    0.0000 H   0  0  0  0  0  0  0  0  0  0  0  0
  1  2  1  0  0  0  0
  2  3  2  0  0  0  0
  2  4  1  0  0  0  0
  4  5  1  0  0  0  0
  5  6  1  0  0  0  0
  5  7  2  0  0  0  0
  7  8  1  0  0  0  0
  8  9  1  0  0  0  0
  8 10  2  0  0  0  0
 10 11  1  0  0  0  0
 10 12  1  0  0  0  0
  7 13  1  0  0  0  0
 13 14  1  0  0  0  0
 13 15  2  0  0  0  0
 15 16  1  0  0  0  0
 15 17  1  0  0  0  0
 17  4  2  0  0  0  0
 17 18  1  0  0  0  0
M  CHG  2   1  -1   2   1
M  END
> <ChemID>
100838

> <source_casrn>
586-39-0

> <CAS>
586-39-0

> <SMILES>
C=Cc1cc(ccc1)[N+]([O-])=O

> <NAME>
3-Nitrostyrene

> <preferred_name>
3-Nitrostyrene

> <iupac>
1-ethenyl-3-nitrobenzene

> <MPID>
100842

> <dsstox_substance_id>
DTXSID70207322

> <Canonical_QSARr>
C=Cc1cc(ccc1)[N+]([O-])=O

> <InChI_Code_QSARr>
InChI=1S/C8H7NO2/c1-2-7-4-3-5-8(6-7)9(10)11/h2-6H,1H2

> <InChI Key_QSARr>
SYZVQXIUVGKCBJ-UHFFFAOYSA-N

> <Salt_Solvent>
?

> <Ready_Biodeg>
0.0

$$$$
100843
  -INDIGO-08031722522D

 13 13  0  0  0  0  0  0  0  0999 V2000
   -0.8000    1.3856    0.0000 C   0  0  0  0  0  0  0  0  0  0  0  0
    0.0000    2.7713    0.0000 H   0  0  0  0  0  0  0  0  0  0  0  0
    0.0000   -0.0000    0.0000 C   0  0  0  0  0  0  0  0  0  0  0  0
    1.6000   -0.0000    0.0000 O   0  0  0  0  0  0  0  0  0  0  0  0
    2.4000    1.3856    0.0000 H   0  0  0  0  0  0  0  0  0  0  0  0
   -0.8000   -1.3856    0.0000 C   0  0  0  0  0  0  0  0  0  0  0  0
    0.0000   -2.7713    0.0000 H   0  0  0  0  0  0  0  0  0  0  0  0
   -2.4000   -1.3856    0.0000 C   0  0  0  0  0  0  0  0  0  0  0  0
   -3.2000   -2.7713    0.0000 H   0  0  0  0  0  0  0  0  0  0  0  0
   -3.2000   -0.0000    0.0000 C   0  0  0  0  0  0  0  0  0  0  0  0
   -4.8000   -0.0000    0.0000 H   0  0  0  0  0  0  0  0  0  0  0  0
   -2.4000    1.3856    0.0000 C   0  0  0  0  0  0  0  0  0  0  0  0
   -3.2000    2.7713    0.0000 Br  0  0  0  0  0  0  0  0  0  0  0  0
  1  2  1  0  0  0  0
  1  3  1  0  0  0  0
  3  4  1  0  0  0  0
  4  5  1  0  0  0  0
  3  6  2  0  0  0  0
  6  7  1  0  0  0  0
  6  8  1  0  0  0  0
  8  9  1  0  0  0  0
  8 10  2  0  0  0  0
 10 11  1  0  0  0  0
 10 12  1  0  0  0  0
 12  1  2  0  0  0  0
 12 13  1  0  0  0  0
M  END
> <ChemID>
100843

> <source_casrn>
591-20-8

> <CAS>
591-20-8

> <SMILES>
Oc1cc(Br)ccc1

> <NAME>
Phenol, 3-bromo-

> <preferred_name>
Phenol, 3-bromo-

> <iupac>
3-BROMOPHENOL

> <MPID>
100846

> <dsstox_substance_id>
DTXSID9060449

> <Canonical_QSARr>
Oc1cc(Br)ccc1

> <InChI_Code_QSARr>
InChI=1S/C6H5BrO/c7-5-2-1-3-6(8)4-5/h1-4,8H

> <InChI Key_QSARr>
MNOJRWOWILAHAV-UHFFFAOYSA-N

> <Salt_Solvent>
?

> <Ready_Biodeg>
0.0

$$$$
100847
  -INDIGO-08031722522D

 19 18  0  0  0  0  0  0  0  0999 V2000
    2.7713    0.0000    0.0000 C   0  0  0  0  0  0  0  0  0  0  0  0
    4.1569   -0.8000    0.0000 H   0  0  0  0  0  0  0  0  0  0  0  0
    4.1569    0.8000    0.0000 H   0  0  0  0  0  0  0  0  0  0  0  0
    2.7713   -1.6000    0.0000 H   0  0  0  0  0  0  0  0  0  0  0  0
    1.3857    0.8000    0.0000 C   0  0  0  0  0  0  0  0  0  0  0  0
    0.7734    2.2782    0.0000 H   0  0  0  0  0  0  0  0  0  0  0  0
    1.9980    2.2782    0.0000 H   0  0  0  0  0  0  0  0  0  0  0  0
    0.0001    0.0000    0.0000 C   0  0  0  0  0  0  0  0  0  0  0  0
    0.6124   -1.4782    0.0000 H   0  0  0  0  0  0  0  0  0  0  0  0
   -0.6122   -1.4782    0.0000 H   0  0  0  0  0  0  0  0  0  0  0  0
   -1.3857    0.8000    0.0000 C   0  0  0  0  0  0  0  0  0  0  0  0
   -1.9980    2.2782    0.0000 H   0  0  0  0  0  0  0  0  0  0  0  0
   -0.7734    2.2782    0.0000 H   0  0  0  0  0  0  0  0  0  0  0  0
   -2.7713    0.0000    0.0000 C   0  0  0  0  0  0  0  0  0  0  0  0
   -2.7713   -1.6000    0.0000 O   0  0  0  0  0  0  0  0  0  0  0  0
   -4.1569    0.8000    0.0000 C   0  0  0  0  0  0  0  0  0  0  0  0
   -5.5426    1.6000    0.0000 H   0  0  0  0  0  0  0  0  0  0  0  0
   -5.5426    0.0000    0.0000 H   0  0  0  0  0  0  0  0  0  0  0  0
   -4.1569    2.4000    0.0000 H   0  0  0  0  0  0  0  0  0  0  0  0
  1  2  1  0  0  0  0
  1  3  1  0  0  0  0
  1  4  1  0  0  0  0
  1  5  1  0  0  0  0
  5  6  1  0  0  0  0
  5  7  1  0  0  0  0
  5  8  1  0  0  0  0
  8  9  1  0  0  0  0
  8 10  1  0  0  0  0
  8 11  1  0  0  0  0
 11 12  1  0  0  0  0
 11 13  1  0  0  0  0
 11 14  1  0  0  0  0
 14 15  2  0  0  0  0
 14 16  1  0  0  0  0
 16 17  1  0  0  0  0
 16 18  1  0  0  0  0
 16 19  1  0  0  0  0
M  END
> <ChemID>
100847

> <source_casrn>
591-78-6

> <CAS>
591-78-6

> <SMILES>
CCCCC(C)=O

> <NAME>
2-Hexanone

> <preferred_name>
2-Hexanone

> <iupac>
hexan-2-one

> <MPID>
100850

> <dsstox_substance_id>
DTXSID0022068

> <Canonical_QSARr>
CCCCC(C)=O

> <InChI_Code_QSARr>
InChI=1S/C6H12O/c1-3-4-5-6(2)7/h3-5H2,1-2H3

> <InChI Key_QSARr>
QQZOPKMRPOGIEB-UHFFFAOYSA-N

> <Salt_Solvent>
?

> <Ready_Biodeg>
0.0

$$$$
100852
  -INDIGO-08031722522D

 13 12  0  0  0  0  0  0  0  0999 V2000
    0.0000    1.6000    0.0000 O   0  0  0  0  0  0  0  0  0  0  0  0
    1.3857    2.4000    0.0000 H   0  0  0  0  0  0  0  0  0  0  0  0
    0.0000    0.0000    0.0000 C   0  0  0  0  0  0  0  0  0  0  0  0
    0.0000   -1.6000    0.0000 H   0  0  0  0  0  0  0  0  0  0  0  0
   -1.6000    0.0000    0.0000 C   0  0  0  0  0  0  0  0  0  0  0  0
   -3.2000    0.0000    0.0000 H   0  0  0  0  0  0  0  0  0  0  0  0
   -2.4000   -1.3856    0.0000 H   0  0  0  0  0  0  0  0  0  0  0  0
   -2.4000    1.3856    0.0000 H   0  0  0  0  0  0  0  0  0  0  0  0
    1.6000    0.0000    0.0000 C   0  0  0  0  0  0  0  0  0  0  0  0
    2.4000    1.3856    0.0000 H   0  0  0  0  0  0  0  0  0  0  0  0
    2.4000   -1.3856    0.0000 C   0  0  0  0  0  0  0  0  0  0  0  0
    4.0000   -1.3856    0.0000 H   0  0  0  0  0  0  0  0  0  0  0  0
    1.6000   -2.7713    0.0000 H   0  0  0  0  0  0  0  0  0  0  0  0
  1  2  1  0  0  0  0
  1  3  1  0  0  0  0
  3  4  1  0  0  0  0
  3  5  1  0  0  0  0
  5  6  1  0  0  0  0
  5  7  1  0  0  0  0
  5  8  1  0  0  0  0
  3  9  1  0  0  0  0
  9 10  1  0  0  0  0
  9 11  2  0  0  0  0
 11 12  1  0  0  0  0
 11 13  1  0  0  0  0
M  END
> <ChemID>
100852

> <source_casrn>
598-32-3

> <CAS>
6118-13-4

> <SMILES>
OC(C=C)C

> <NAME>
3-Buten-2-ol

> <preferred_name>
(2S)-but-3-en-2-ol

> <iupac>
C4H8O

> <MPID>
100854

> <dsstox_substance_id>
DTXSID40426447

> <Canonical_QSARr>
CC(O)C=C

> <InChI_Code_QSARr>
InChI=1S/C4H8O/c1-3-4(2)5/h3-5H,1H2,2H3

> <InChI Key_QSARr>
MKUWVMRNQOOSAT-UHFFFAOYSA-N

> <Salt_Solvent>
?

> <Ready_Biodeg>
1.0

$$$$
100856
  -INDIGO-08031722522D

 30 31  0  0  0  0  0  0  0  0999 V2000
   -0.0000   -0.0000    0.0000 C   0  0  0  0  0  0  0  0  0  0  0  0
    1.5999   -0.0000    0.0000 C   0  0  0  0  0  0  0  0  0  0  0  0
    2.4000    1.3856    0.0000 C   0  0  0  0  0  0  0  0  0  0  0  0
    4.0000    1.3856    0.0000 O   0  0  0  0  0  0  0  0  0  0  0  0
    4.8000    2.7712    0.0000 C   0  0  0  0  0  0  0  0  0  0  0  0
    5.5999    4.1570    0.0000 H   0  0  0  0  0  0  0  0  0  0  0  0
    6.4000    2.7712    0.0000 H   0  0  0  0  0  0  0  0  0  0  0  0
    4.0000    4.1570    0.0000 H   0  0  0  0  0  0  0  0  0  0  0  0
    1.5999    2.7712    0.0000 O   0  0  0  0  0  0  0  0  0  0  0  0
    2.4000   -1.3857    0.0000 C   0  0  0  0  0  0  0  0  0  0  0  0
    4.0000   -1.3857    0.0000 H   0  0  0  0  0  0  0  0  0  0  0  0
    1.5999   -2.7713    0.0000 C   0  0  0  0  0  0  0  0  0  0  0  0
    2.4000   -4.1569    0.0000 H   0  0  0  0  0  0  0  0  0  0  0  0
   -0.0000   -2.7713    0.0000 C   0  0  0  0  0  0  0  0  0  0  0  0
   -0.7999   -4.1569    0.0000 H   0  0  0  0  0  0  0  0  0  0  0  0
   -0.7999   -1.3857    0.0000 C   0  0  0  0  0  0  0  0  0  0  0  0
   -2.4001   -1.3857    0.0000 H   0  0  0  0  0  0  0  0  0  0  0  0
   -0.7999    1.3856    0.0000 C   0  0  0  0  0  0  0  0  0  0  0  0
   -2.3035    1.9328    0.0000 C   0  0  0  0  0  0  0  0  0  0  0  0
   -3.5292    0.9043    0.0000 C   0  0  0  0  0  0  0  0  0  0  0  0
   -3.2514   -0.6713    0.0000 H   0  0  0  0  0  0  0  0  0  0  0  0
   -5.0326    1.4516    0.0000 C   0  0  0  0  0  0  0  0  0  0  0  0
   -6.2583    0.4233    0.0000 H   0  0  0  0  0  0  0  0  0  0  0  0
   -5.3105    3.0274    0.0000 C   0  0  0  0  0  0  0  0  0  0  0  0
   -6.8140    3.5746    0.0000 H   0  0  0  0  0  0  0  0  0  0  0  0
   -4.0849    4.0557    0.0000 C   0  0  0  0  0  0  0  0  0  0  0  0
   -4.3628    5.6315    0.0000 H   0  0  0  0  0  0  0  0  0  0  0  0
   -2.5813    3.5086    0.0000 C   0  0  0  0  0  0  0  0  0  0  0  0
   -1.3556    4.5370    0.0000 H   0  0  0  0  0  0  0  0  0  0  0  0
   -0.0000    2.7712    0.0000 O   0  0  0  0  0  0  0  0  0  0  0  0
  1  2  1  0  0  0  0
  2  3  1  0  0  0  0
  3  4  1  0  0  0  0
  4  5  1  0  0  0  0
  5  6  1  0  0  0  0
  5  7  1  0  0  0  0
  5  8  1  0  0  0  0
  3  9  2  0  0  0  0
  2 10  2  0  0  0  0
 10 11  1  0  0  0  0
 10 12  1  0  0  0  0
 12 13  1  0  0  0  0
 12 14  2  0  0  0  0
 14 15  1  0  0  0  0
 14 16  1  0  0  0  0
 16  1  2  0  0  0  0
 16 17  1  0  0  0  0
  1 18  1  0  0  0  0
 18 19  1  0  0  0  0
 19 20  1  0  0  0  0
 20 21  1  0  0  0  0
 20 22  2  0  0  0  0
 22 23  1  0  0  0  0
 22 24  1  0  0  0  0
 24 25  1  0  0  0  0
 24 26  2  0  0  0  0
 26 27  1  0  0  0  0
 26 28  1  0  0  0  0
 28 19  2  0  0  0  0
 28 29  1  0  0  0  0
 18 30  2  0  0  0  0
M  END
> <ChemID>
100856

> <source_casrn>
606-28-0

> <CAS>
606-28-0

> <SMILES>
COC(=O)c1ccccc1C(=O)c1ccccc1

> <NAME>
Benzoic acid, 2-benzoyl-, methyl ester

> <preferred_name>
Methyl o-benzoylbenzoate

> <iupac>
methyl 2-(benzoyl)benzoate

> <MPID>
100858

> <dsstox_substance_id>
DTXSID2060549

> <Canonical_QSARr>
COC(=O)c1ccccc1C(=O)c1ccccc1

> <InChI_Code_QSARr>
InChI=1S/C15H12O3/c1-18-15(17)13-10-6-5-9-12(13)14(16)11-7-3-2-4-8-11/h2-10H,1H3

> <InChI Key_QSARr>
NQSMEZJWJJVYOI-UHFFFAOYSA-N

> <Salt_Solvent>
?

> <Ready_Biodeg>
0.0

$$$$
100860
  -INDIGO-08031722522D

 19 19  0  0  0  0  0  0  0  0999 V2000
   -2.7713    1.6000    0.0000 C   0  0  0  0  0  0  0  0  0  0  0  0
   -1.3856    2.4000    0.0000 C   0  0  0  0  0  0  0  0  0  0  0  0
   -1.3856    4.0000    0.0000 H   0  0  0  0  0  0  0  0  0  0  0  0
    0.0000    1.6000    0.0000 C   0  0  0  0  0  0  0  0  0  0  0  0
    1.3857    2.4000    0.0000 H   0  0  0  0  0  0  0  0  0  0  0  0
    0.0000    0.0000    0.0000 C   0  0  0  0  0  0  0  0  0  0  0  0
    1.3857   -0.8000    0.0000 C   0  0  0  0  0  0  0  0  0  0  0  0
    2.7713   -1.6000    0.0000 H   0  0  0  0  0  0  0  0  0  0  0  0
    2.7713    0.0000    0.0000 H   0  0  0  0  0  0  0  0  0  0  0  0
    1.3857   -2.4000    0.0000 H   0  0  0  0  0  0  0  0  0  0  0  0
   -1.3856   -0.8000    0.0000 C   0  0  0  0  0  0  0  0  0  0  0  0
   -1.3856   -2.4000    0.0000 H   0  0  0  0  0  0  0  0  0  0  0  0
   -2.7713    0.0000    0.0000 C   0  0  0  0  0  0  0  0  0  0  0  0
   -4.1569   -0.8000    0.0000 N   0  0  0  0  0  0  0  0  0  0  0  0
   -5.5426    0.0000    0.0000 O   0  0  0  0  0  0  0  0  0  0  0  0
   -4.1570   -2.4000    0.0000 O   0  0  0  0  0  0  0  0  0  0  0  0
   -4.1569    2.4000    0.0000 N   0  0  0  0  0  0  0  0  0  0  0  0
   -4.1570    4.0000    0.0000 O   0  0  0  0  0  0  0  0  0  0  0  0
   -5.5426    1.6000    0.0000 O   0  0  0  0  0  0  0  0  0  0  0  0
  1  2  1  0  0  0  0
  2  3  1  0  0  0  0
  2  4  2  0  0  0  0
  4  5  1  0  0  0  0
  4  6  1  0  0  0  0
  6  7  1  0  0  0  0
  7  8  1  0  0  0  0
  7  9  1  0  0  0  0
  7 10  1  0  0  0  0
  6 11  2  0  0  0  0
 11 12  1  0  0  0  0
 11 13  1  0  0  0  0
 13  1  2  0  0  0  0
 13 14  1  0  0  0  0
 14 15  1  0  0  0  0
 14 16  2  0  0  0  0
  1 17  1  0  0  0  0
 17 18  1  0  0  0  0
 17 19  2  0  0  0  0
M  CHG  4  14   1  15  -1  17   1  18  -1
M  END
> <ChemID>
100860

> <source_casrn>
610-39-9

> <CAS>
610-39-9

> <SMILES>
Cc1cc(c(cc1)[N+]([O-])=O)[N+]([O-])=O

> <NAME>
Benzene, 4-methyl-1,2-dinitro-

> <preferred_name>
3,4-Dinitrotoluene

> <iupac>
4-methyl-1,2-dinitrobenzene

> <MPID>
100862

> <dsstox_substance_id>
DTXSID8027240

> <Canonical_QSARr>
Cc1cc(c(cc1)[N+]([O-])=O)[N+]([O-])=O

> <InChI_Code_QSARr>
InChI=1S/C7H6N2O4/c1-5-2-3-6(8(10)11)7(4-5)9(12)13/h2-4H,1H3

> <InChI Key_QSARr>
INYDMNPNDHRJQJ-UHFFFAOYSA-N

> <Salt_Solvent>
?

> <Ready_Biodeg>
0.0

$$$$
100864
  -INDIGO-08031722522D

 16 16  0  0  0  0  0  0  0  0999 V2000
    4.8000   -0.0000    0.0000 O   0  0  0  0  0  0  0  0  0  0  0  0
    5.6000    1.3856    0.0000 H   0  0  0  0  0  0  0  0  0  0  0  0
    3.2000   -0.0000    0.0000 C   0  0  0  0  0  0  0  0  0  0  0  0
    2.4000    1.3856    0.0000 C   0  0  0  0  0  0  0  0  0  0  0  0
    3.2000    2.7713    0.0000 H   0  0  0  0  0  0  0  0  0  0  0  0
    0.8000    1.3856    0.0000 C   0  0  0  0  0  0  0  0  0  0  0  0
    0.0000    2.7713    0.0000 H   0  0  0  0  0  0  0  0  0  0  0  0
    0.0000   -0.0000    0.0000 C   0  0  0  0  0  0  0  0  0  0  0  0
   -1.6001   -0.0000    0.0000 C   0  0  0  0  0  0  0  0  0  0  0  0
   -3.2000   -0.0000    0.0000 H   0  0  0  0  0  0  0  0  0  0  0  0
   -2.4000   -1.3856    0.0000 H   0  0  0  0  0  0  0  0  0  0  0  0
   -2.4000    1.3856    0.0000 H   0  0  0  0  0  0  0  0  0  0  0  0
    0.8000   -1.3856    0.0000 C   0  0  0  0  0  0  0  0  0  0  0  0
    0.0000   -2.7713    0.0000 Cl  0  0  0  0  0  0  0  0  0  0  0  0
    2.4000   -1.3856    0.0000 C   0  0  0  0  0  0  0  0  0  0  0  0
    3.2000   -2.7713    0.0000 H   0  0  0  0  0  0  0  0  0  0  0  0
  1  2  1  0  0  0  0
  1  3  1  0  0  0  0
  3  4  1  0  0  0  0
  4  5  1  0  0  0  0
  4  6  2  0  0  0  0
  6  7  1  0  0  0  0
  6  8  1  0  0  0  0
  8  9  1  0  0  0  0
  9 10  1  0  0  0  0
  9 11  1  0  0  0  0
  9 12  1  0  0  0  0
  8 13  2  0  0  0  0
 13 14  1  0  0  0  0
 13 15  1  0  0  0  0
 15  3  2  0  0  0  0
 15 16  1  0  0  0  0
M  END
> <ChemID>
100864

> <source_casrn>
615-62-3

> <CAS>
615-62-3

> <SMILES>
Cc1ccc(O)cc1Cl

> <NAME>
Phenol, 3-chloro-4-methyl-

> <preferred_name>
Phenol, 3-chloro-4-methyl-

> <iupac>
3-Chloro-4-methylphenol

> <MPID>
100866

> <dsstox_substance_id>
DTXSID9060655

> <Canonical_QSARr>
Cc1ccc(O)cc1Cl

> <InChI_Code_QSARr>
InChI=1S/C7H7ClO/c1-5-2-3-6(9)4-7(5)8/h2-4,9H,1H3

> <InChI Key_QSARr>
VQZRLBWPEHFGCD-UHFFFAOYSA-N

> <Salt_Solvent>
?

> <Ready_Biodeg>
0.0

$$$$
100869
  -INDIGO-08031722522D

 23 22  0  0  0  0  0  0  0  0999 V2000
   -2.7712    3.2000    0.0000 O   0  0  0  0  0  0  0  0  0  0  0  0
   -1.3857    2.4000    0.0000 N   0  0  0  0  0  0  0  0  0  0  0  0
   -1.3856    0.8000    0.0000 N   0  0  0  0  0  0  0  0  0  0  0  0
   -2.7712    0.0000    0.0000 C   0  0  0  0  0  0  0  0  0  0  0  0
   -2.1591   -1.4782    0.0000 H   0  0  0  0  0  0  0  0  0  0  0  0
   -3.3835   -1.4782    0.0000 H   0  0  0  0  0  0  0  0  0  0  0  0
   -4.1569    0.8000    0.0000 C   0  0  0  0  0  0  0  0  0  0  0  0
   -4.7692    2.2782    0.0000 H   0  0  0  0  0  0  0  0  0  0  0  0
   -3.5446    2.2782    0.0000 H   0  0  0  0  0  0  0  0  0  0  0  0
   -5.5425    0.0000    0.0000 C   0  0  0  0  0  0  0  0  0  0  0  0
   -6.9282   -0.8000    0.0000 H   0  0  0  0  0  0  0  0  0  0  0  0
   -6.9282    0.8000    0.0000 H   0  0  0  0  0  0  0  0  0  0  0  0
   -5.5425   -1.6000    0.0000 H   0  0  0  0  0  0  0  0  0  0  0  0
   -0.0001    0.0000    0.0000 C   0  0  0  0  0  0  0  0  0  0  0  0
    0.6123   -1.4782    0.0000 H   0  0  0  0  0  0  0  0  0  0  0  0
   -0.6122   -1.4782    0.0000 H   0  0  0  0  0  0  0  0  0  0  0  0
    1.3856    0.8000    0.0000 C   0  0  0  0  0  0  0  0  0  0  0  0
    0.7733    2.2782    0.0000 H   0  0  0  0  0  0  0  0  0  0  0  0
    1.9979    2.2782    0.0000 H   0  0  0  0  0  0  0  0  0  0  0  0
    2.7713    0.0000    0.0000 C   0  0  0  0  0  0  0  0  0  0  0  0
    4.1569   -0.8000    0.0000 H   0  0  0  0  0  0  0  0  0  0  0  0
    4.1569    0.8000    0.0000 H   0  0  0  0  0  0  0  0  0  0  0  0
    2.7713   -1.6000    0.0000 H   0  0  0  0  0  0  0  0  0  0  0  0
  1  2  2  0  0  0  0
  2  3  1  0  0  0  0
  3  4  1  0  0  0  0
  4  5  1  0  0  0  0
  4  6  1  0  0  0  0
  4  7  1  0  0  0  0
  7  8  1  0  0  0  0
  7  9  1  0  0  0  0
  7 10  1  0  0  0  0
 10 11  1  0  0  0  0
 10 12  1  0  0  0  0
 10 13  1  0  0  0  0
  3 14  1  0  0  0  0
 14 15  1  0  0  0  0
 14 16  1  0  0  0  0
 14 17  1  0  0  0  0
 17 18  1  0  0  0  0
 17 19  1  0  0  0  0
 17 20  1  0  0  0  0
 20 21  1  0  0  0  0
 20 22  1  0  0  0  0
 20 23  1  0  0  0  0
M  END
> <ChemID>
100869

> <source_casrn>
621-64-7

> <CAS>
621-64-7

> <SMILES>
CCCN(CCC)N=O

> <NAME>
N-NITROSODIPROPYLAMINE

> <preferred_name>
N-Nitrosodipropylamine

> <iupac>
N-nitroso-N-propylpropan-1-amine

> <MPID>
100870

> <dsstox_substance_id>
DTXSID6021032

> <Canonical_QSARr>
CCCN(CCC)N=O

> <InChI_Code_QSARr>
InChI=1S/C6H14N2O/c1-3-5-8(7-9)6-4-2/h3-6H2,1-2H3

> <InChI Key_QSARr>
YLKFDHTUAUWZPQ-UHFFFAOYSA-N

> <Salt_Solvent>
?

> <Ready_Biodeg>
0.0

$$$$
100873
  -INDIGO-08031722522D

 14 14  0  0  0  0  0  0  0  0999 V2000
    0.0000   -0.0000    0.0000 C   0  0  0  0  0  0  0  0  0  0  0  0
   -0.8000    1.3856    0.0000 C   0  0  0  0  0  0  0  0  0  0  0  0
    0.0000    2.7713    0.0000 H   0  0  0  0  0  0  0  0  0  0  0  0
   -2.4000    1.3856    0.0000 C   0  0  0  0  0  0  0  0  0  0  0  0
   -3.2000    2.7713    0.0000 H   0  0  0  0  0  0  0  0  0  0  0  0
   -3.2000   -0.0000    0.0000 C   0  0  0  0  0  0  0  0  0  0  0  0
   -4.7999   -0.0000    0.0000 C   0  0  0  0  0  0  0  0  0  0  0  0
   -6.4000   -0.0000    0.0000 N   0  0  0  0  0  0  0  0  0  0  0  0
   -2.4000   -1.3856    0.0000 C   0  0  0  0  0  0  0  0  0  0  0  0
   -3.2000   -2.7713    0.0000 H   0  0  0  0  0  0  0  0  0  0  0  0
   -0.8000   -1.3856    0.0000 C   0  0  0  0  0  0  0  0  0  0  0  0
    0.0000   -2.7713    0.0000 H   0  0  0  0  0  0  0  0  0  0  0  0
    1.6001   -0.0000    0.0000 C   0  0  0  0  0  0  0  0  0  0  0  0
    3.2000   -0.0000    0.0000 N   0  0  0  0  0  0  0  0  0  0  0  0
  1  2  1  0  0  0  0
  2  3  1  0  0  0  0
  2  4  2  0  0  0  0
  4  5  1  0  0  0  0
  4  6  1  0  0  0  0
  6  7  1  0  0  0  0
  7  8  3  0  0  0  0
  6  9  2  0  0  0  0
  9 10  1  0  0  0  0
  9 11  1  0  0  0  0
 11  1  2  0  0  0  0
 11 12  1  0  0  0  0
  1 13  1  0  0  0  0
 13 14  3  0  0  0  0
M  END
> <ChemID>
100873

> <source_casrn>
623-26-7

> <CAS>
623-26-7

> <SMILES>
N#Cc1ccc(cc1)C#N

> <NAME>
1,4-Benzenedicarbonitrile

> <preferred_name>
1,4-Benzenedicarbonitrile

> <iupac>
Terephthalonitrile

> <MPID>
100874

> <dsstox_substance_id>
DTXSID1060768

> <Canonical_QSARr>
N#Cc1ccc(cc1)C#N

> <InChI_Code_QSARr>
InChI=1S/C8H4N2/c9-5-7-1-2-8(6-10)4-3-7/h1-4H

> <InChI Key_QSARr>
BHXFKXOIODIUJO-UHFFFAOYSA-N

> <Salt_Solvent>
?

> <Ready_Biodeg>
0.0

$$$$
100879
  -INDIGO-08031722522D

 15 14  0  0  0  0  0  0  0  0999 V2000
    1.3857    0.8000    0.0000 N   0  0  0  0  0  0  0  0  0  0  0  0
    1.3857    2.4000    0.0000 H   0  0  0  0  0  0  0  0  0  0  0  0
    2.7713    0.0000    0.0000 C   0  0  0  0  0  0  0  0  0  0  0  0
    4.1569    0.8000    0.0000 C   0  0  0  0  0  0  0  0  0  0  0  0
    5.5426    1.6000    0.0000 H   0  0  0  0  0  0  0  0  0  0  0  0
    5.5426    0.0000    0.0000 H   0  0  0  0  0  0  0  0  0  0  0  0
    4.1569    2.4000    0.0000 H   0  0  0  0  0  0  0  0  0  0  0  0
    2.7713   -1.6000    0.0000 O   0  0  0  0  0  0  0  0  0  0  0  0
    0.0000    0.0000    0.0000 C   0  0  0  0  0  0  0  0  0  0  0  0
    0.6122   -1.4782    0.0000 H   0  0  0  0  0  0  0  0  0  0  0  0
   -0.6122   -1.4782    0.0000 H   0  0  0  0  0  0  0  0  0  0  0  0
   -1.3856    0.8000    0.0000 C   0  0  0  0  0  0  0  0  0  0  0  0
   -2.7713    1.6000    0.0000 H   0  0  0  0  0  0  0  0  0  0  0  0
   -2.7713    0.0000    0.0000 H   0  0  0  0  0  0  0  0  0  0  0  0
   -1.3856    2.4000    0.0000 H   0  0  0  0  0  0  0  0  0  0  0  0
  1  2  1  0  0  0  0
  1  3  1  0  0  0  0
  3  4  1  0  0  0  0
  4  5  1  0  0  0  0
  4  6  1  0  0  0  0
  4  7  1  0  0  0  0
  3  8  2  0  0  0  0
  1  9  1  0  0  0  0
  9 10  1  0  0  0  0
  9 11  1  0  0  0  0
  9 12  1  0  0  0  0
 12 13  1  0  0  0  0
 12 14  1  0  0  0  0
 12 15  1  0  0  0  0
M  END
> <ChemID>
100879

> <source_casrn>
625-50-3

> <CAS>
625-50-3

> <SMILES>
CCNC(C)=O

> <NAME>
Acetamide, N-ethyl-

> <preferred_name>
Acetamide, N-ethyl-

> <iupac>
N-ETHYLACETAMIDE

> <MPID>
100880

> <dsstox_substance_id>
DTXSID5060803

> <Canonical_QSARr>
CCNC(C)=O

> <InChI_Code_QSARr>
InChI=1S/C4H9NO/c1-3-5-4(2)6/h3H2,1-2H3,(H,5,6)

> <InChI Key_QSARr>
PMDCZENCAXMSOU-UHFFFAOYSA-N

> <Salt_Solvent>
?

> <Ready_Biodeg>
1.0

$$$$
100884
  -INDIGO-08031722522D

 20 20  0  0  0  0  0  0  0  0999 V2000
    3.2000   -0.0000    0.0000 N   0  0  0  0  0  0  0  0  0  0  0  0
    2.4000    1.3857    0.0000 C   0  0  0  0  0  0  0  0  0  0  0  0
    3.9035    1.9329    0.0000 H   0  0  0  0  0  0  0  0  0  0  0  0
    2.1221    2.9613    0.0000 H   0  0  0  0  0  0  0  0  0  0  0  0
    0.8000    1.3857    0.0000 C   0  0  0  0  0  0  0  0  0  0  0  0
    1.0778    2.9613    0.0000 H   0  0  0  0  0  0  0  0  0  0  0  0
   -0.7036    1.9329    0.0000 H   0  0  0  0  0  0  0  0  0  0  0  0
   -0.0000   -0.0000    0.0000 C   0  0  0  0  0  0  0  0  0  0  0  0
   -1.2257    1.0285    0.0000 H   0  0  0  0  0  0  0  0  0  0  0  0
   -1.2257   -1.0285    0.0000 H   0  0  0  0  0  0  0  0  0  0  0  0
    0.8000   -1.3857    0.0000 C   0  0  0  0  0  0  0  0  0  0  0  0
   -0.7036   -1.9329    0.0000 H   0  0  0  0  0  0  0  0  0  0  0  0
    1.0778   -2.9613    0.0000 H   0  0  0  0  0  0  0  0  0  0  0  0
    2.4000   -1.3857    0.0000 C   0  0  0  0  0  0  0  0  0  0  0  0
    2.1221   -2.9613    0.0000 H   0  0  0  0  0  0  0  0  0  0  0  0
    3.9035   -1.9329    0.0000 H   0  0  0  0  0  0  0  0  0  0  0  0
    4.8000   -0.0000    0.0000 C   0  0  0  0  0  0  0  0  0  0  0  0
    6.4000   -0.0000    0.0000 H   0  0  0  0  0  0  0  0  0  0  0  0
    5.6000   -1.3857    0.0000 H   0  0  0  0  0  0  0  0  0  0  0  0
    5.6000    1.3857    0.0000 H   0  0  0  0  0  0  0  0  0  0  0  0
  1  2  1  0  0  0  0
  2  3  1  0  0  0  0
  2  4  1  0  0  0  0
  2  5  1  0  0  0  0
  5  6  1  0  0  0  0
  5  7  1  0  0  0  0
  5  8  1  0  0  0  0
  8  9  1  0  0  0  0
  8 10  1  0  0  0  0
  8 11  1  0  0  0  0
 11 12  1  0  0  0  0
 11 13  1  0  0  0  0
 11 14  1  0  0  0  0
 14  1  1  0  0  0  0
 14 15  1  0  0  0  0
 14 16  1  0  0  0  0
  1 17  1  0  0  0  0
 17 18  1  0  0  0  0
 17 19  1  0  0  0  0
 17 20  1  0  0  0  0
M  END
> <ChemID>
100884

> <source_casrn>
626-67-5

> <CAS>
626-67-5

> <SMILES>
CN1CCCCC1

> <NAME>
Piperidine, 1-methyl-

> <preferred_name>
Piperidine, 1-methyl-

> <iupac>
1-Methylpiperidine

> <MPID>
100885

> <dsstox_substance_id>
DTXSID8060822

> <Canonical_QSARr>
CN1CCCCC1

> <InChI_Code_QSARr>
InChI=1S/C6H13N/c1-7-5-3-2-4-6-7/h2-6H2,1H3

> <InChI Key_QSARr>
PAMIQIKDUOTOBW-UHFFFAOYSA-N

> <Salt_Solvent>
?

> <Ready_Biodeg>
0.0

$$$$
100889
  -INDIGO-08031722522D

 44 43  0  0  0  0  0  0  0  0999 V2000
    8.3138    0.0000    0.0000 C   0  0  0  0  0  0  0  0  0  0  0  0
    9.6995    0.8000    0.0000 H   0  0  0  0  0  0  0  0  0  0  0  0
    9.6995   -0.8000    0.0000 H   0  0  0  0  0  0  0  0  0  0  0  0
    8.3138    1.6000    0.0000 H   0  0  0  0  0  0  0  0  0  0  0  0
    6.9282   -0.8000    0.0000 C   0  0  0  0  0  0  0  0  0  0  0  0
    6.3158   -2.2782    0.0000 H   0  0  0  0  0  0  0  0  0  0  0  0
    7.5406   -2.2782    0.0000 H   0  0  0  0  0  0  0  0  0  0  0  0
    5.5426    0.0000    0.0000 C   0  0  0  0  0  0  0  0  0  0  0  0
    6.1550    1.4782    0.0000 H   0  0  0  0  0  0  0  0  0  0  0  0
    4.9301    1.4782    0.0000 H   0  0  0  0  0  0  0  0  0  0  0  0
    4.1569   -0.8000    0.0000 C   0  0  0  0  0  0  0  0  0  0  0  0
    3.5445   -2.2782    0.0000 H   0  0  0  0  0  0  0  0  0  0  0  0
    4.7693   -2.2782    0.0000 H   0  0  0  0  0  0  0  0  0  0  0  0
    2.7713    0.0000    0.0000 C   0  0  0  0  0  0  0  0  0  0  0  0
    3.3837    1.4782    0.0000 H   0  0  0  0  0  0  0  0  0  0  0  0
    2.1589    1.4782    0.0000 H   0  0  0  0  0  0  0  0  0  0  0  0
    1.3856   -0.8000    0.0000 C   0  0  0  0  0  0  0  0  0  0  0  0
    0.7732   -2.2782    0.0000 H   0  0  0  0  0  0  0  0  0  0  0  0
    1.9981   -2.2782    0.0000 H   0  0  0  0  0  0  0  0  0  0  0  0
    0.0000    0.0000    0.0000 C   0  0  0  0  0  0  0  0  0  0  0  0
    0.6124    1.4782    0.0000 H   0  0  0  0  0  0  0  0  0  0  0  0
   -0.6124    1.4782    0.0000 H   0  0  0  0  0  0  0  0  0  0  0  0
   -1.3856   -0.8000    0.0000 C   0  0  0  0  0  0  0  0  0  0  0  0
   -1.9981   -2.2782    0.0000 H   0  0  0  0  0  0  0  0  0  0  0  0
   -0.7732   -2.2782    0.0000 H   0  0  0  0  0  0  0  0  0  0  0  0
   -2.7713    0.0000    0.0000 C   0  0  0  0  0  0  0  0  0  0  0  0
   -2.1589    1.4782    0.0000 H   0  0  0  0  0  0  0  0  0  0  0  0
   -3.3837    1.4782    0.0000 H   0  0  0  0  0  0  0  0  0  0  0  0
   -4.1569   -0.8000    0.0000 C   0  0  0  0  0  0  0  0  0  0  0  0
   -4.7693   -2.2782    0.0000 H   0  0  0  0  0  0  0  0  0  0  0  0
   -3.5445   -2.2782    0.0000 H   0  0  0  0  0  0  0  0  0  0  0  0
   -5.5426    0.0000    0.0000 C   0  0  0  0  0  0  0  0  0  0  0  0
   -4.9301    1.4782    0.0000 H   0  0  0  0  0  0  0  0  0  0  0  0
   -6.1550    1.4782    0.0000 H   0  0  0  0  0  0  0  0  0  0  0  0
   -6.9282   -0.8000    0.0000 C   0  0  0  0  0  0  0  0  0  0  0  0
   -7.5406   -2.2782    0.0000 H   0  0  0  0  0  0  0  0  0  0  0  0
   -6.3158   -2.2782    0.0000 H   0  0  0  0  0  0  0  0  0  0  0  0
   -8.3138    0.0000    0.0000 C   0  0  0  0  0  0  0  0  0  0  0  0
   -7.7014    1.4782    0.0000 H   0  0  0  0  0  0  0  0  0  0  0  0
   -8.9263    1.4782    0.0000 H   0  0  0  0  0  0  0  0  0  0  0  0
   -9.6995   -0.8000    0.0000 C   0  0  0  0  0  0  0  0  0  0  0  0
  -11.0851   -1.6000    0.0000 H   0  0  0  0  0  0  0  0  0  0  0  0
  -11.0851    0.0000    0.0000 H   0  0  0  0  0  0  0  0  0  0  0  0
   -9.6995   -2.4000    0.0000 H   0  0  0  0  0  0  0  0  0  0  0  0
  1  2  1  0  0  0  0
  1  3  1  0  0  0  0
  1  4  1  0  0  0  0
  1  5  1  0  0  0  0
  5  6  1  0  0  0  0
  5  7  1  0  0  0  0
  5  8  1  0  0  0  0
  8  9  1  0  0  0  0
  8 10  1  0  0  0  0
  8 11  1  0  0  0  0
 11 12  1  0  0  0  0
 11 13  1  0  0  0  0
 11 14  1  0  0  0  0
 14 15  1  0  0  0  0
 14 16  1  0  0  0  0
 14 17  1  0  0  0  0
 17 18  1  0  0  0  0
 17 19  1  0  0  0  0
 17 20  1  0  0  0  0
 20 21  1  0  0  0  0
 20 22  1  0  0  0  0
 20 23  1  0  0  0  0
 23 24  1  0  0  0  0
 23 25  1  0  0  0  0
 23 26  1  0  0  0  0
 26 27  1  0  0  0  0
 26 28  1  0  0  0  0
 26 29  1  0  0  0  0
 29 30  1  0  0  0  0
 29 31  1  0  0  0  0
 29 32  1  0  0  0  0
 32 33  1  0  0  0  0
 32 34  1  0  0  0  0
 32 35  1  0  0  0  0
 35 36  1  0  0  0  0
 35 37  1  0  0  0  0
 35 38  1  0  0  0  0
 38 39  1  0  0  0  0
 38 40  1  0  0  0  0
 38 41  1  0  0  0  0
 41 42  1  0  0  0  0
 41 43  1  0  0  0  0
 41 44  1  0  0  0  0
M  END
> <ChemID>
100889

> <source_casrn>
629-59-4

> <CAS>
629-59-4

> <SMILES>
CCCCCCCCCCCCCC

> <NAME>
Tetradecane

> <preferred_name>
Tetradecane

> <iupac>
tetradecane

> <MPID>
100890

> <dsstox_substance_id>
DTXSID1027267

> <Canonical_QSARr>
CCCCCCCCCCCCCC

> <InChI_Code_QSARr>
InChI=1S/C14H30/c1-3-5-7-9-11-13-14-12-10-8-6-4-2/h3-14H2,1-2H3

> <InChI Key_QSARr>
BGHCVCJVXZWKCC-UHFFFAOYSA-N

> <Salt_Solvent>
?

> <Ready_Biodeg>
1.0

$$$$
100893
  -INDIGO-08031722522D

 53 52  0  0  0  0  0  0  0  0999 V2000
    9.6994   -0.8000    0.0000 C   0  0  0  0  0  0  0  0  0  0  0  0
   11.0851   -1.6000    0.0000 H   0  0  0  0  0  0  0  0  0  0  0  0
   11.0851    0.0000    0.0000 H   0  0  0  0  0  0  0  0  0  0  0  0
    9.6994   -2.4000    0.0000 H   0  0  0  0  0  0  0  0  0  0  0  0
    8.3137    0.0000    0.0000 C   0  0  0  0  0  0  0  0  0  0  0  0
    8.9261    1.4782    0.0000 H   0  0  0  0  0  0  0  0  0  0  0  0
    7.7017    1.4782    0.0000 H   0  0  0  0  0  0  0  0  0  0  0  0
    6.9284   -0.8000    0.0000 C   0  0  0  0  0  0  0  0  0  0  0  0
    6.3160   -2.2782    0.0000 H   0  0  0  0  0  0  0  0  0  0  0  0
    7.5404   -2.2782    0.0000 H   0  0  0  0  0  0  0  0  0  0  0  0
    5.5427    0.0000    0.0000 C   0  0  0  0  0  0  0  0  0  0  0  0
    6.1547    1.4782    0.0000 H   0  0  0  0  0  0  0  0  0  0  0  0
    4.9303    1.4782    0.0000 H   0  0  0  0  0  0  0  0  0  0  0  0
    4.1570   -0.8000    0.0000 C   0  0  0  0  0  0  0  0  0  0  0  0
    3.5446   -2.2782    0.0000 H   0  0  0  0  0  0  0  0  0  0  0  0
    4.7693   -2.2782    0.0000 H   0  0  0  0  0  0  0  0  0  0  0  0
    2.7713    0.0000    0.0000 C   0  0  0  0  0  0  0  0  0  0  0  0
    3.3836    1.4782    0.0000 H   0  0  0  0  0  0  0  0  0  0  0  0
    2.1589    1.4782    0.0000 H   0  0  0  0  0  0  0  0  0  0  0  0
    1.3856   -0.8000    0.0000 C   0  0  0  0  0  0  0  0  0  0  0  0
    0.7732   -2.2782    0.0000 H   0  0  0  0  0  0  0  0  0  0  0  0
    1.9979   -2.2782    0.0000 H   0  0  0  0  0  0  0  0  0  0  0  0
   -0.0001    0.0000    0.0000 C   0  0  0  0  0  0  0  0  0  0  0  0
    0.6122    1.4782    0.0000 H   0  0  0  0  0  0  0  0  0  0  0  0
   -0.6121    1.4782    0.0000 H   0  0  0  0  0  0  0  0  0  0  0  0
   -1.3854   -0.8000    0.0000 C   0  0  0  0  0  0  0  0  0  0  0  0
   -1.9978   -2.2782    0.0000 H   0  0  0  0  0  0  0  0  0  0  0  0
   -0.7735   -2.2782    0.0000 H   0  0  0  0  0  0  0  0  0  0  0  0
   -2.7712    0.0000    0.0000 C   0  0  0  0  0  0  0  0  0  0  0  0
   -2.1592    1.4782    0.0000 H   0  0  0  0  0  0  0  0  0  0  0  0
   -3.3835    1.4782    0.0000 H   0  0  0  0  0  0  0  0  0  0  0  0
   -4.1569   -0.8000    0.0000 C   0  0  0  0  0  0  0  0  0  0  0  0
   -4.7692   -2.2782    0.0000 H   0  0  0  0  0  0  0  0  0  0  0  0
   -3.5445   -2.2782    0.0000 H   0  0  0  0  0  0  0  0  0  0  0  0
   -5.5426    0.0000    0.0000 C   0  0  0  0  0  0  0  0  0  0  0  0
   -4.9302    1.4782    0.0000 H   0  0  0  0  0  0  0  0  0  0  0  0
   -6.1549    1.4782    0.0000 H   0  0  0  0  0  0  0  0  0  0  0  0
   -6.9283   -0.8000    0.0000 C   0  0  0  0  0  0  0  0  0  0  0  0
   -7.5406   -2.2782    0.0000 H   0  0  0  0  0  0  0  0  0  0  0  0
   -6.3159   -2.2782    0.0000 H   0  0  0  0  0  0  0  0  0  0  0  0
   -8.3140    0.0000    0.0000 C   0  0  0  0  0  0  0  0  0  0  0  0
   -7.7016    1.4782    0.0000 H   0  0  0  0  0  0  0  0  0  0  0  0
   -8.9259    1.4782    0.0000 H   0  0  0  0  0  0  0  0  0  0  0  0
   -9.6997   -0.8000    0.0000 C   0  0  0  0  0  0  0  0  0  0  0  0
  -10.3117   -2.2782    0.0000 H   0  0  0  0  0  0  0  0  0  0  0  0
   -9.0873   -2.2782    0.0000 H   0  0  0  0  0  0  0  0  0  0  0  0
  -11.0850    0.0000    0.0000 C   0  0  0  0  0  0  0  0  0  0  0  0
  -10.4730    1.4782    0.0000 H   0  0  0  0  0  0  0  0  0  0  0  0
  -11.6974    1.4782    0.0000 H   0  0  0  0  0  0  0  0  0  0  0  0
  -12.4707   -0.8000    0.0000 C   0  0  0  0  0  0  0  0  0  0  0  0
  -13.8564   -1.6000    0.0000 H   0  0  0  0  0  0  0  0  0  0  0  0
  -13.8564    0.0000    0.0000 H   0  0  0  0  0  0  0  0  0  0  0  0
  -12.4707   -2.4000    0.0000 H   0  0  0  0  0  0  0  0  0  0  0  0
  1  2  1  0  0  0  0
  1  3  1  0  0  0  0
  1  4  1  0  0  0  0
  1  5  1  0  0  0  0
  5  6  1  0  0  0  0
  5  7  1  0  0  0  0
  5  8  1  0  0  0  0
  8  9  1  0  0  0  0
  8 10  1  0  0  0  0
  8 11  1  0  0  0  0
 11 12  1  0  0  0  0
 11 13  1  0  0  0  0
 11 14  1  0  0  0  0
 14 15  1  0  0  0  0
 14 16  1  0  0  0  0
 14 17  1  0  0  0  0
 17 18  1  0  0  0  0
 17 19  1  0  0  0  0
 17 20  1  0  0  0  0
 20 21  1  0  0  0  0
 20 22  1  0  0  0  0
 20 23  1  0  0  0  0
 23 24  1  0  0  0  0
 23 25  1  0  0  0  0
 23 26  1  0  0  0  0
 26 27  1  0  0  0  0
 26 28  1  0  0  0  0
 26 29  1  0  0  0  0
 29 30  1  0  0  0  0
 29 31  1  0  0  0  0
 29 32  1  0  0  0  0
 32 33  1  0  0  0  0
 32 34  1  0  0  0  0
 32 35  1  0  0  0  0
 35 36  1  0  0  0  0
 35 37  1  0  0  0  0
 35 38  1  0  0  0  0
 38 39  1  0  0  0  0
 38 40  1  0  0  0  0
 38 41  1  0  0  0  0
 41 42  1  0  0  0  0
 41 43  1  0  0  0  0
 41 44  1  0  0  0  0
 44 45  1  0  0  0  0
 44 46  1  0  0  0  0
 44 47  1  0  0  0  0
 47 48  1  0  0  0  0
 47 49  1  0  0  0  0
 47 50  1  0  0  0  0
 50 51  1  0  0  0  0
 50 52  1  0  0  0  0
 50 53  1  0  0  0  0
M  END
> <ChemID>
100893

> <source_casrn>
629-78-7

> <CAS>
629-78-7

> <SMILES>
CCCCCCCCCCCCCCCCC

> <NAME>
Heptadecane

> <preferred_name>
Heptadecane

> <iupac>
heptadecane

> <MPID>
100894

> <dsstox_substance_id>
DTXSID7047061

> <Canonical_QSARr>
CCCCCCCCCCCCCCCCC

> <InChI_Code_QSARr>
InChI=1S/C17H36/c1-3-5-7-9-11-13-15-17-16-14-12-10-8-6-4-2/h3-17H2,1-2H3

> <InChI Key_QSARr>
NDJKXXJCMXVBJW-UHFFFAOYSA-N

> <Salt_Solvent>
?

> <Ready_Biodeg>
1.0

$$$$
100897
  -INDIGO-08031722522D

 68 67  0  0  0  0  0  0  0  0999 V2000
    9.6997   -0.8000    0.0000 C   0  0  0  0  0  0  0  0  0  0  0  0
   11.0851   -1.6000    0.0000 H   0  0  0  0  0  0  0  0  0  0  0  0
   11.0851    0.0000    0.0000 H   0  0  0  0  0  0  0  0  0  0  0  0
    9.6997   -2.4000    0.0000 H   0  0  0  0  0  0  0  0  0  0  0  0
    8.3137    0.0000    0.0000 C   0  0  0  0  0  0  0  0  0  0  0  0
    8.9259    1.4782    0.0000 H   0  0  0  0  0  0  0  0  0  0  0  0
    7.7014    1.4782    0.0000 H   0  0  0  0  0  0  0  0  0  0  0  0
    6.9282   -0.8000    0.0000 C   0  0  0  0  0  0  0  0  0  0  0  0
    6.3160   -2.2782    0.0000 H   0  0  0  0  0  0  0  0  0  0  0  0
    7.5405   -2.2782    0.0000 H   0  0  0  0  0  0  0  0  0  0  0  0
    5.5428    0.0000    0.0000 C   0  0  0  0  0  0  0  0  0  0  0  0
    6.1550    1.4782    0.0000 H   0  0  0  0  0  0  0  0  0  0  0  0
    4.9305    1.4782    0.0000 H   0  0  0  0  0  0  0  0  0  0  0  0
    4.1568   -0.8000    0.0000 C   0  0  0  0  0  0  0  0  0  0  0  0
    3.5445   -2.2782    0.0000 H   0  0  0  0  0  0  0  0  0  0  0  0
    4.7690   -2.2782    0.0000 H   0  0  0  0  0  0  0  0  0  0  0  0
    2.7713    0.0000    0.0000 C   0  0  0  0  0  0  0  0  0  0  0  0
    3.3836    1.4782    0.0000 H   0  0  0  0  0  0  0  0  0  0  0  0
    2.1591    1.4782    0.0000 H   0  0  0  0  0  0  0  0  0  0  0  0
    1.3859   -0.8000    0.0000 C   0  0  0  0  0  0  0  0  0  0  0  0
    0.7731   -2.2782    0.0000 H   0  0  0  0  0  0  0  0  0  0  0  0
    1.9981   -2.2782    0.0000 H   0  0  0  0  0  0  0  0  0  0  0  0
   -0.0001    0.0000    0.0000 C   0  0  0  0  0  0  0  0  0  0  0  0
    0.6121    1.4782    0.0000 H   0  0  0  0  0  0  0  0  0  0  0  0
   -0.6124    1.4782    0.0000 H   0  0  0  0  0  0  0  0  0  0  0  0
   -1.3856   -0.8000    0.0000 C   0  0  0  0  0  0  0  0  0  0  0  0
   -1.9978   -2.2782    0.0000 H   0  0  0  0  0  0  0  0  0  0  0  0
   -0.7733   -2.2782    0.0000 H   0  0  0  0  0  0  0  0  0  0  0  0
   -2.7710    0.0000    0.0000 C   0  0  0  0  0  0  0  0  0  0  0  0
   -2.1588    1.4782    0.0000 H   0  0  0  0  0  0  0  0  0  0  0  0
   -3.3838    1.4782    0.0000 H   0  0  0  0  0  0  0  0  0  0  0  0
   -4.1570   -0.8000    0.0000 C   0  0  0  0  0  0  0  0  0  0  0  0
   -4.7693   -2.2782    0.0000 H   0  0  0  0  0  0  0  0  0  0  0  0
   -3.5448   -2.2782    0.0000 H   0  0  0  0  0  0  0  0  0  0  0  0
   -5.5425    0.0000    0.0000 C   0  0  0  0  0  0  0  0  0  0  0  0
   -4.9302    1.4782    0.0000 H   0  0  0  0  0  0  0  0  0  0  0  0
   -6.1547    1.4782    0.0000 H   0  0  0  0  0  0  0  0  0  0  0  0
   -6.9284   -0.8000    0.0000 C   0  0  0  0  0  0  0  0  0  0  0  0
   -7.5407   -2.2782    0.0000 H   0  0  0  0  0  0  0  0  0  0  0  0
   -6.3157   -2.2782    0.0000 H   0  0  0  0  0  0  0  0  0  0  0  0
   -8.3139    0.0000    0.0000 C   0  0  0  0  0  0  0  0  0  0  0  0
   -7.7017    1.4782    0.0000 H   0  0  0  0  0  0  0  0  0  0  0  0
   -8.9262    1.4782    0.0000 H   0  0  0  0  0  0  0  0  0  0  0  0
   -9.6994   -0.8000    0.0000 C   0  0  0  0  0  0  0  0  0  0  0  0
  -10.3116   -2.2782    0.0000 H   0  0  0  0  0  0  0  0  0  0  0  0
   -9.0871   -2.2782    0.0000 H   0  0  0  0  0  0  0  0  0  0  0  0
  -11.0853    0.0000    0.0000 C   0  0  0  0  0  0  0  0  0  0  0  0
  -10.4726    1.4782    0.0000 H   0  0  0  0  0  0  0  0  0  0  0  0
  -11.6976    1.4782    0.0000 H   0  0  0  0  0  0  0  0  0  0  0  0
  -12.4708   -0.8000    0.0000 C   0  0  0  0  0  0  0  0  0  0  0  0
  -13.0831   -2.2782    0.0000 H   0  0  0  0  0  0  0  0  0  0  0  0
  -11.8586   -2.2782    0.0000 H   0  0  0  0  0  0  0  0  0  0  0  0
  -13.8563    0.0000    0.0000 C   0  0  0  0  0  0  0  0  0  0  0  0
  -13.2440    1.4782    0.0000 H   0  0  0  0  0  0  0  0  0  0  0  0
  -14.4685    1.4782    0.0000 H   0  0  0  0  0  0  0  0  0  0  0  0
  -15.2422   -0.8000    0.0000 C   0  0  0  0  0  0  0  0  0  0  0  0
  -15.8545   -2.2782    0.0000 H   0  0  0  0  0  0  0  0  0  0  0  0
  -14.6300   -2.2782    0.0000 H   0  0  0  0  0  0  0  0  0  0  0  0
  -16.6277    0.0000    0.0000 C   0  0  0  0  0  0  0  0  0  0  0  0
  -16.0155    1.4782    0.0000 H   0  0  0  0  0  0  0  0  0  0  0  0
  -17.2400    1.4782    0.0000 H   0  0  0  0  0  0  0  0  0  0  0  0
  -18.0132   -0.8000    0.0000 C   0  0  0  0  0  0  0  0  0  0  0  0
  -18.6254   -2.2782    0.0000 H   0  0  0  0  0  0  0  0  0  0  0  0
  -17.4009   -2.2782    0.0000 H   0  0  0  0  0  0  0  0  0  0  0  0
  -19.3991    0.0000    0.0000 C   0  0  0  0  0  0  0  0  0  0  0  0
  -20.7846    0.8000    0.0000 H   0  0  0  0  0  0  0  0  0  0  0  0
  -20.7846   -0.8000    0.0000 H   0  0  0  0  0  0  0  0  0  0  0  0
  -19.3991    1.6000    0.0000 H   0  0  0  0  0  0  0  0  0  0  0  0
  1  2  1  0  0  0  0
  1  3  1  0  0  0  0
  1  4  1  0  0  0  0
  1  5  1  0  0  0  0
  5  6  1  0  0  0  0
  5  7  1  0  0  0  0
  5  8  1  0  0  0  0
  8  9  1  0  0  0  0
  8 10  1  0  0  0  0
  8 11  1  0  0  0  0
 11 12  1  0  0  0  0
 11 13  1  0  0  0  0
 11 14  1  0  0  0  0
 14 15  1  0  0  0  0
 14 16  1  0  0  0  0
 14 17  1  0  0  0  0
 17 18  1  0  0  0  0
 17 19  1  0  0  0  0
 17 20  1  0  0  0  0
 20 21  1  0  0  0  0
 20 22  1  0  0  0  0
 20 23  1  0  0  0  0
 23 24  1  0  0  0  0
 23 25  1  0  0  0  0
 23 26  1  0  0  0  0
 26 27  1  0  0  0  0
 26 28  1  0  0  0  0
 26 29  1  0  0  0  0
 29 30  1  0  0  0  0
 29 31  1  0  0  0  0
 29 32  1  0  0  0  0
 32 33  1  0  0  0  0
 32 34  1  0  0  0  0
 32 35  1  0  0  0  0
 35 36  1  0  0  0  0
 35 37  1  0  0  0  0
 35 38  1  0  0  0  0
 38 39  1  0  0  0  0
 38 40  1  0  0  0  0
 38 41  1  0  0  0  0
 41 42  1  0  0  0  0
 41 43  1  0  0  0  0
 41 44  1  0  0  0  0
 44 45  1  0  0  0  0
 44 46  1  0  0  0  0
 44 47  1  0  0  0  0
 47 48  1  0  0  0  0
 47 49  1  0  0  0  0
 47 50  1  0  0  0  0
 50 51  1  0  0  0  0
 50 52  1  0  0  0  0
 50 53  1  0  0  0  0
 53 54  1  0  0  0  0
 53 55  1  0  0  0  0
 53 56  1  0  0  0  0
 56 57  1  0  0  0  0
 56 58  1  0  0  0  0
 56 59  1  0  0  0  0
 59 60  1  0  0  0  0
 59 61  1  0  0  0  0
 59 62  1  0  0  0  0
 62 63  1  0  0  0  0
 62 64  1  0  0  0  0
 62 65  1  0  0  0  0
 65 66  1  0  0  0  0
 65 67  1  0  0  0  0
 65 68  1  0  0  0  0
M  END
> <ChemID>
100897

> <source_casrn>
629-97-0

> <CAS>
629-97-0

> <SMILES>
CCCCCCCCCCCCCCCCCCCCCC

> <NAME>
Docosane

> <preferred_name>
Docosane

> <iupac>
docosane

> <MPID>
100898

> <dsstox_substance_id>
DTXSID7047063

> <Canonical_QSARr>
CCCCCCCCCCCCCCCCCCCCCC

> <InChI_Code_QSARr>
InChI=1S/C22H46/c1-3-5-7-9-11-13-15-17-19-21-22-20-18-16-14-12-10-8-6-4-2/h3-22H2,1-2H3

> <InChI Key_QSARr>
HOWGUJZVBDQJKV-UHFFFAOYSA-N

> <Salt_Solvent>
?

> <Ready_Biodeg>
1.0

$$$$
100901
  -INDIGO-08031722522D

 89 88  0  0  0  0  0  0  0  0999 V2000
    0.0003    0.0000    0.0000 C   0  0  0  0  0  0  0  0  0  0  0  0
    0.6124    1.4782    0.0000 H   0  0  0  0  0  0  0  0  0  0  0  0
   -0.6124    1.4782    0.0000 H   0  0  0  0  0  0  0  0  0  0  0  0
    1.3856   -0.8000    0.0000 C   0  0  0  0  0  0  0  0  0  0  0  0
    0.7735   -2.2782    0.0000 H   0  0  0  0  0  0  0  0  0  0  0  0
    1.9977   -2.2782    0.0000 H   0  0  0  0  0  0  0  0  0  0  0  0
    2.7716    0.0000    0.0000 C   0  0  0  0  0  0  0  0  0  0  0  0
    3.3837    1.4782    0.0000 H   0  0  0  0  0  0  0  0  0  0  0  0
    2.1589    1.4782    0.0000 H   0  0  0  0  0  0  0  0  0  0  0  0
    4.1569   -0.8000    0.0000 C   0  0  0  0  0  0  0  0  0  0  0  0
    3.5448   -2.2782    0.0000 H   0  0  0  0  0  0  0  0  0  0  0  0
    4.7690   -2.2782    0.0000 H   0  0  0  0  0  0  0  0  0  0  0  0
    5.5429    0.0000    0.0000 C   0  0  0  0  0  0  0  0  0  0  0  0
    6.1550    1.4782    0.0000 H   0  0  0  0  0  0  0  0  0  0  0  0
    4.9301    1.4782    0.0000 H   0  0  0  0  0  0  0  0  0  0  0  0
    6.9282   -0.8000    0.0000 C   0  0  0  0  0  0  0  0  0  0  0  0
    6.3161   -2.2782    0.0000 H   0  0  0  0  0  0  0  0  0  0  0  0
    7.5403   -2.2782    0.0000 H   0  0  0  0  0  0  0  0  0  0  0  0
    8.3142    0.0000    0.0000 C   0  0  0  0  0  0  0  0  0  0  0  0
    8.9263    1.4782    0.0000 H   0  0  0  0  0  0  0  0  0  0  0  0
    7.7014    1.4782    0.0000 H   0  0  0  0  0  0  0  0  0  0  0  0
    9.6995   -0.8000    0.0000 C   0  0  0  0  0  0  0  0  0  0  0  0
    9.0874   -2.2782    0.0000 H   0  0  0  0  0  0  0  0  0  0  0  0
   10.3116   -2.2782    0.0000 H   0  0  0  0  0  0  0  0  0  0  0  0
   11.0854    0.0000    0.0000 C   0  0  0  0  0  0  0  0  0  0  0  0
   11.6975    1.4782    0.0000 H   0  0  0  0  0  0  0  0  0  0  0  0
   10.4727    1.4782    0.0000 H   0  0  0  0  0  0  0  0  0  0  0  0
   12.4708   -0.8000    0.0000 C   0  0  0  0  0  0  0  0  0  0  0  0
   11.8587   -2.2782    0.0000 H   0  0  0  0  0  0  0  0  0  0  0  0
   13.0829   -2.2782    0.0000 H   0  0  0  0  0  0  0  0  0  0  0  0
   13.8567    0.0000    0.0000 C   0  0  0  0  0  0  0  0  0  0  0  0
   14.4688    1.4782    0.0000 H   0  0  0  0  0  0  0  0  0  0  0  0
   13.2440    1.4782    0.0000 H   0  0  0  0  0  0  0  0  0  0  0  0
   15.2420   -0.8000    0.0000 C   0  0  0  0  0  0  0  0  0  0  0  0
   14.6299   -2.2782    0.0000 H   0  0  0  0  0  0  0  0  0  0  0  0
   15.8542   -2.2782    0.0000 H   0  0  0  0  0  0  0  0  0  0  0  0
   16.6280    0.0000    0.0000 C   0  0  0  0  0  0  0  0  0  0  0  0
   17.2401    1.4782    0.0000 H   0  0  0  0  0  0  0  0  0  0  0  0
   16.0153    1.4782    0.0000 H   0  0  0  0  0  0  0  0  0  0  0  0
   18.0133   -0.8000    0.0000 C   0  0  0  0  0  0  0  0  0  0  0  0
   17.4012   -2.2782    0.0000 H   0  0  0  0  0  0  0  0  0  0  0  0
   18.6254   -2.2782    0.0000 H   0  0  0  0  0  0  0  0  0  0  0  0
   19.3993    0.0000    0.0000 C   0  0  0  0  0  0  0  0  0  0  0  0
   20.7846    0.8000    0.0000 H   0  0  0  0  0  0  0  0  0  0  0  0
   20.7846   -0.8000    0.0000 H   0  0  0  0  0  0  0  0  0  0  0  0
   19.3993    1.6000    0.0000 H   0  0  0  0  0  0  0  0  0  0  0  0
   -1.3856   -0.8000    0.0000 C   0  0  0  0  0  0  0  0  0  0  0  0
   -1.9977   -2.2782    0.0000 H   0  0  0  0  0  0  0  0  0  0  0  0
   -0.7735   -2.2782    0.0000 H   0  0  0  0  0  0  0  0  0  0  0  0
   -2.7716    0.0000    0.0000 C   0  0  0  0  0  0  0  0  0  0  0  0
   -2.1589    1.4782    0.0000 H   0  0  0  0  0  0  0  0  0  0  0  0
   -3.3837    1.4782    0.0000 H   0  0  0  0  0  0  0  0  0  0  0  0
   -4.1569   -0.8000    0.0000 C   0  0  0  0  0  0  0  0  0  0  0  0
   -4.7690   -2.2782    0.0000 H   0  0  0  0  0  0  0  0  0  0  0  0
   -3.5448   -2.2782    0.0000 H   0  0  0  0  0  0  0  0  0  0  0  0
   -5.5422    0.0000    0.0000 C   0  0  0  0  0  0  0  0  0  0  0  0
   -4.9301    1.4782    0.0000 H   0  0  0  0  0  0  0  0  0  0  0  0
   -6.1550    1.4782    0.0000 H   0  0  0  0  0  0  0  0  0  0  0  0
   -6.9282   -0.8000    0.0000 C   0  0  0  0  0  0  0  0  0  0  0  0
   -7.5403   -2.2782    0.0000 H   0  0  0  0  0  0  0  0  0  0  0  0
   -6.3161   -2.2782    0.0000 H   0  0  0  0  0  0  0  0  0  0  0  0
   -8.3142    0.0000    0.0000 C   0  0  0  0  0  0  0  0  0  0  0  0
   -7.7014    1.4782    0.0000 H   0  0  0  0  0  0  0  0  0  0  0  0
   -8.9263    1.4782    0.0000 H   0  0  0  0  0  0  0  0  0  0  0  0
   -9.6995   -0.8000    0.0000 C   0  0  0  0  0  0  0  0  0  0  0  0
  -10.3116   -2.2782    0.0000 H   0  0  0  0  0  0  0  0  0  0  0  0
   -9.0874   -2.2782    0.0000 H   0  0  0  0  0  0  0  0  0  0  0  0
  -11.0848    0.0000    0.0000 C   0  0  0  0  0  0  0  0  0  0  0  0
  -10.4727    1.4782    0.0000 H   0  0  0  0  0  0  0  0  0  0  0  0
  -11.6975    1.4782    0.0000 H   0  0  0  0  0  0  0  0  0  0  0  0
  -12.4708   -0.8000    0.0000 C   0  0  0  0  0  0  0  0  0  0  0  0
  -13.0829   -2.2782    0.0000 H   0  0  0  0  0  0  0  0  0  0  0  0
  -11.8587   -2.2782    0.0000 H   0  0  0  0  0  0  0  0  0  0  0  0
  -13.8561    0.0000    0.0000 C   0  0  0  0  0  0  0  0  0  0  0  0
  -13.2440    1.4782    0.0000 H   0  0  0  0  0  0  0  0  0  0  0  0
  -14.4688    1.4782    0.0000 H   0  0  0  0  0  0  0  0  0  0  0  0
  -15.2420   -0.8000    0.0000 C   0  0  0  0  0  0  0  0  0  0  0  0
  -15.8542   -2.2782    0.0000 H   0  0  0  0  0  0  0  0  0  0  0  0
  -14.6299   -2.2782    0.0000 H   0  0  0  0  0  0  0  0  0  0  0  0
  -16.6280    0.0000    0.0000 C   0  0  0  0  0  0  0  0  0  0  0  0
  -16.0153    1.4782    0.0000 H   0  0  0  0  0  0  0  0  0  0  0  0
  -17.2401    1.4782    0.0000 H   0  0  0  0  0  0  0  0  0  0  0  0
  -18.0133   -0.8000    0.0000 C   0  0  0  0  0  0  0  0  0  0  0  0
  -18.6254   -2.2782    0.0000 H   0  0  0  0  0  0  0  0  0  0  0  0
  -17.4012   -2.2782    0.0000 H   0  0  0  0  0  0  0  0  0  0  0  0
  -19.3987    0.0000    0.0000 C   0  0  0  0  0  0  0  0  0  0  0  0
  -20.7846    0.8000    0.0000 H   0  0  0  0  0  0  0  0  0  0  0  0
  -20.7846   -0.8000    0.0000 H   0  0  0  0  0  0  0  0  0  0  0  0
  -19.3987    1.6000    0.0000 H   0  0  0  0  0  0  0  0  0  0  0  0
  1  2  1  0  0  0  0
  1  3  1  0  0  0  0
  1  4  1  0  0  0  0
  4  5  1  0  0  0  0
  4  6  1  0  0  0  0
  4  7  1  0  0  0  0
  7  8  1  0  0  0  0
  7  9  1  0  0  0  0
  7 10  1  0  0  0  0
 10 11  1  0  0  0  0
 10 12  1  0  0  0  0
 10 13  1  0  0  0  0
 13 14  1  0  0  0  0
 13 15  1  0  0  0  0
 13 16  1  0  0  0  0
 16 17  1  0  0  0  0
 16 18  1  0  0  0  0
 16 19  1  0  0  0  0
 19 20  1  0  0  0  0
 19 21  1  0  0  0  0
 19 22  1  0  0  0  0
 22 23  1  0  0  0  0
 22 24  1  0  0  0  0
 22 25  1  0  0  0  0
 25 26  1  0  0  0  0
 25 27  1  0  0  0  0
 25 28  1  0  0  0  0
 28 29  1  0  0  0  0
 28 30  1  0  0  0  0
 28 31  1  0  0  0  0
 31 32  1  0  0  0  0
 31 33  1  0  0  0  0
 31 34  1  0  0  0  0
 34 35  1  0  0  0  0
 34 36  1  0  0  0  0
 34 37  1  0  0  0  0
 37 38  1  0  0  0  0
 37 39  1  0  0  0  0
 37 40  1  0  0  0  0
 40 41  1  0  0  0  0
 40 42  1  0  0  0  0
 40 43  1  0  0  0  0
 43 44  1  0  0  0  0
 43 45  1  0  0  0  0
 43 46  1  0  0  0  0
  1 47  1  0  0  0  0
 47 48  1  0  0  0  0
 47 49  1  0  0  0  0
 47 50  1  0  0  0  0
 50 51  1  0  0  0  0
 50 52  1  0  0  0  0
 50 53  1  0  0  0  0
 53 54  1  0  0  0  0
 53 55  1  0  0  0  0
 53 56  1  0  0  0  0
 56 57  1  0  0  0  0
 56 58  1  0  0  0  0
 56 59  1  0  0  0  0
 59 60  1  0  0  0  0
 59 61  1  0  0  0  0
 59 62  1  0  0  0  0
 62 63  1  0  0  0  0
 62 64  1  0  0  0  0
 62 65  1  0  0  0  0
 65 66  1  0  0  0  0
 65 67  1  0  0  0  0
 65 68  1  0  0  0  0
 68 69  1  0  0  0  0
 68 70  1  0  0  0  0
 68 71  1  0  0  0  0
 71 72  1  0  0  0  0
 71 73  1  0  0  0  0
 71 74  1  0  0  0  0
 74 75  1  0  0  0  0
 74 76  1  0  0  0  0
 74 77  1  0  0  0  0
 77 78  1  0  0  0  0
 77 79  1  0  0  0  0
 77 80  1  0  0  0  0
 80 81  1  0  0  0  0
 80 82  1  0  0  0  0
 80 83  1  0  0  0  0
 83 84  1  0  0  0  0
 83 85  1  0  0  0  0
 83 86  1  0  0  0  0
 86 87  1  0  0  0  0
 86 88  1  0  0  0  0
 86 89  1  0  0  0  0
M  END
> <ChemID>
100901

> <source_casrn>
630-03-5

> <CAS>
630-03-5

> <SMILES>
CCCCCCCCCCCCCCCCCCCCCCCCCCCCC

> <NAME>
Nonacosane

> <preferred_name>
Nonacosane

> <iupac>
Nonacosane

> <MPID>
100902

> <dsstox_substance_id>
DTXSID2060884

> <Canonical_QSARr>
CCCCCCCCCCCCCCCCCCCCCCCCCCCCC

> <InChI_Code_QSARr>
InChI=1S/C29H60/c1-3-5-7-9-11-13-15-17-19-21-23-25-27-29-28-26-24-22-20-18-16-14-12-10-8-6-4-2/h3-29H2,1-2H3

> <InChI Key_QSARr>
IGGUPRCHHJZPBS-UHFFFAOYSA-N

> <Salt_Solvent>
?

> <Ready_Biodeg>
1.0

$$$$
100905
  -INDIGO-08031722522D

 19 19  0  0  0  0  0  0  0  0999 V2000
    0.0000    0.0000    0.0000 C   0  0  0  0  0  0  0  0  0  0  0  0
    1.6000    0.0000    0.0000 C   0  0  0  0  0  0  0  0  0  0  0  0
    2.4001    1.3856    0.0000 C   0  0  0  0  0  0  0  0  0  0  0  0
    4.0001    1.3856    0.0000 O   0  0  0  0  0  0  0  0  0  0  0  0
    4.8000    2.7713    0.0000 H   0  0  0  0  0  0  0  0  0  0  0  0
    1.6000    2.7713    0.0000 O   0  0  0  0  0  0  0  0  0  0  0  0
    2.4001   -1.3856    0.0000 C   0  0  0  0  0  0  0  0  0  0  0  0
    3.9999   -1.3856    0.0000 H   0  0  0  0  0  0  0  0  0  0  0  0
    1.6000   -2.7713    0.0000 C   0  0  0  0  0  0  0  0  0  0  0  0
    2.3999   -4.1569    0.0000 H   0  0  0  0  0  0  0  0  0  0  0  0
    0.0000   -2.7713    0.0000 C   0  0  0  0  0  0  0  0  0  0  0  0
   -0.7999   -4.1569    0.0000 H   0  0  0  0  0  0  0  0  0  0  0  0
   -0.7999   -1.3856    0.0000 C   0  0  0  0  0  0  0  0  0  0  0  0
   -2.3999   -1.3856    0.0000 H   0  0  0  0  0  0  0  0  0  0  0  0
   -0.7999    1.3856    0.0000 S   0  0  0  0  0  0  0  0  0  0  0  0
   -1.6000    2.7713    0.0000 O   0  0  0  0  0  0  0  0  0  0  0  0
   -3.2000    2.7713    0.0000 H   0  0  0  0  0  0  0  0  0  0  0  0
   -2.1856    0.5857    0.0000 O   0  0  0  0  0  0  0  0  0  0  0  0
    0.5856    2.1856    0.0000 O   0  0  0  0  0  0  0  0  0  0  0  0
  1  2  1  0  0  0  0
  2  3  1  0  0  0  0
  3  4  1  0  0  0  0
  4  5  1  0  0  0  0
  3  6  2  0  0  0  0
  2  7  2  0  0  0  0
  7  8  1  0  0  0  0
  7  9  1  0  0  0  0
  9 10  1  0  0  0  0
  9 11  2  0  0  0  0
 11 12  1  0  0  0  0
 11 13  1  0  0  0  0
 13  1  2  0  0  0  0
 13 14  1  0  0  0  0
  1 15  1  0  0  0  0
 15 16  1  0  0  0  0
 16 17  1  0  0  0  0
 15 18  2  0  0  0  0
 15 19  2  0  0  0  0
M  END
> <ChemID>
100905

> <source_casrn>
632-25-7

> <CAS>
632-25-7

> <SMILES>
OC(=O)c1ccccc1S(O)(=O)=O

> <NAME>
Benzoic acid, 2-sulfo-

> <preferred_name>
Benzoic acid, 2-sulfo-

> <iupac>
2-Sulfobenzoic acid

> <MPID>
100906

> <dsstox_substance_id>
DTXSID6060894

> <Canonical_QSARr>
OC(=O)c1ccccc1S(O)(=O)=O

> <InChI_Code_QSARr>
InChI=1S/C7H6O5S/c8-7(9)5-3-1-2-4-6(5)13(10,11)12/h1-4H,(H,8,9)(H,10,11,12)

> <InChI Key_QSARr>
ZMPRRFPMMJQXPP-UHFFFAOYSA-N

> <Salt_Solvent>
?

> <Ready_Biodeg>
0.0

$$$$
100909
  -INDIGO-08031722522D

 31 31  0  0  0  0  0  0  0  0999 V2000
    0.8001    1.3856    0.0000 C   0  0  0  0  0  0  0  0  0  0  0  0
    1.6000    2.7713    0.0000 H   0  0  0  0  0  0  0  0  0  0  0  0
    2.4000    1.3856    0.0000 H   0  0  0  0  0  0  0  0  0  0  0  0
    0.0001    2.7713    0.0000 H   0  0  0  0  0  0  0  0  0  0  0  0
    0.0001    0.0000    0.0000 C   0  0  0  0  0  0  0  0  0  0  0  0
    1.3857   -0.8000    0.0000 O   0  0  0  0  0  0  0  0  0  0  0  0
    2.9614   -0.5221    0.0000 C   0  0  0  0  0  0  0  0  0  0  0  0
    3.7613    0.8635    0.0000 C   0  0  0  0  0  0  0  0  0  0  0  0
    2.9614    2.2491    0.0000 H   0  0  0  0  0  0  0  0  0  0  0  0
    5.3612    0.8635    0.0000 C   0  0  0  0  0  0  0  0  0  0  0  0
    6.1614    2.2491    0.0000 H   0  0  0  0  0  0  0  0  0  0  0  0
    6.1614   -0.5221    0.0000 C   0  0  0  0  0  0  0  0  0  0  0  0
    7.7613   -0.5221    0.0000 Cl  0  0  0  0  0  0  0  0  0  0  0  0
    5.3612   -1.9078    0.0000 C   0  0  0  0  0  0  0  0  0  0  0  0
    6.1614   -3.2934    0.0000 H   0  0  0  0  0  0  0  0  0  0  0  0
    3.7613   -1.9078    0.0000 C   0  0  0  0  0  0  0  0  0  0  0  0
    2.9614   -3.2934    0.0000 H   0  0  0  0  0  0  0  0  0  0  0  0
   -0.8001   -1.3856    0.0000 C   0  0  0  0  0  0  0  0  0  0  0  0
    0.0001   -2.7713    0.0000 O   0  0  0  0  0  0  0  0  0  0  0  0
   -2.4000   -1.3856    0.0000 O   0  0  0  0  0  0  0  0  0  0  0  0
   -3.2000   -2.7713    0.0000 C   0  0  0  0  0  0  0  0  0  0  0  0
   -2.9912   -4.3576    0.0000 H   0  0  0  0  0  0  0  0  0  0  0  0
   -1.9306   -3.7453    0.0000 H   0  0  0  0  0  0  0  0  0  0  0  0
   -4.8001   -2.7713    0.0000 C   0  0  0  0  0  0  0  0  0  0  0  0
   -6.4000   -2.7713    0.0000 H   0  0  0  0  0  0  0  0  0  0  0  0
   -5.6000   -4.1569    0.0000 H   0  0  0  0  0  0  0  0  0  0  0  0
   -5.6000   -1.3856    0.0000 H   0  0  0  0  0  0  0  0  0  0  0  0
   -1.3857    0.8000    0.0000 C   0  0  0  0  0  0  0  0  0  0  0  0
   -2.7712    1.6001    0.0000 H   0  0  0  0  0  0  0  0  0  0  0  0
   -1.3857    2.4000    0.0000 H   0  0  0  0  0  0  0  0  0  0  0  0
   -2.7712    0.0000    0.0000 H   0  0  0  0  0  0  0  0  0  0  0  0
  1  2  1  0  0  0  0
  1  3  1  0  0  0  0
  1  4  1  0  0  0  0
  1  5  1  0  0  0  0
  5  6  1  0  0  0  0
  6  7  1  0  0  0  0
  7  8  1  0  0  0  0
  8  9  1  0  0  0  0
  8 10  2  0  0  0  0
 10 11  1  0  0  0  0
 10 12  1  0  0  0  0
 12 13  1  0  0  0  0
 12 14  2  0  0  0  0
 14 15  1  0  0  0  0
 14 16  1  0  0  0  0
 16  7  2  0  0  0  0
 16 17  1  0  0  0  0
  5 18  1  0  0  0  0
 18 19  2  0  0  0  0
 18 20  1  0  0  0  0
 20 21  1  0  0  0  0
 21 22  1  0  0  0  0
 21 23  1  0  0  0  0
 21 24  1  0  0  0  0
 24 25  1  0  0  0  0
 24 26  1  0  0  0  0
 24 27  1  0  0  0  0
  5 28  1  0  0  0  0
 28 29  1  0  0  0  0
 28 30  1  0  0  0  0
 28 31  1  0  0  0  0
M  END
> <ChemID>
100909

> <source_casrn>
637-07-0

> <CAS>
637-07-0

> <SMILES>
CC(C)(Oc1ccc(Cl)cc1)C(=O)OCC

> <NAME>
Clofibrate

> <preferred_name>
Clofibrate

> <iupac>
C12H15ClO3

> <MPID>
100910

> <dsstox_substance_id>
DTXSID3020336

> <Canonical_QSARr>
CC(C)(Oc1ccc(Cl)cc1)C(=O)OCC

> <InChI_Code_QSARr>
InChI=1S/C12H15ClO3/c1-4-15-11(14)12(2,3)16-10-7-5-9(13)6-8-10/h5-8H,4H2,1-3H3

> <InChI Key_QSARr>
KNHUKKLJHYUCFP-UHFFFAOYSA-N

> <Salt_Solvent>
?

> <Ready_Biodeg>
1.0

$$$$
100913
  -INDIGO-08031722522D

 14 14  0  0  0  0  0  0  0  0999 V2000
    1.6000   -0.0000    0.0000 P   0  0  0  0  0  0  0  0  0  0  0  0
    2.4000    1.3856    0.0000 Cl  0  0  0  0  0  0  0  0  0  0  0  0
    2.4000   -1.3856    0.0000 Cl  0  0  0  0  0  0  0  0  0  0  0  0
    0.0000   -0.0000    0.0000 C   0  0  0  0  0  0  0  0  0  0  0  0
   -0.8000    1.3856    0.0000 C   0  0  0  0  0  0  0  0  0  0  0  0
    0.0000    2.7713    0.0000 H   0  0  0  0  0  0  0  0  0  0  0  0
   -2.4000    1.3856    0.0000 C   0  0  0  0  0  0  0  0  0  0  0  0
   -3.2000    2.7713    0.0000 H   0  0  0  0  0  0  0  0  0  0  0  0
   -3.2000   -0.0000    0.0000 C   0  0  0  0  0  0  0  0  0  0  0  0
   -4.8000   -0.0000    0.0000 H   0  0  0  0  0  0  0  0  0  0  0  0
   -2.4000   -1.3856    0.0000 C   0  0  0  0  0  0  0  0  0  0  0  0
   -3.2000   -2.7713    0.0000 H   0  0  0  0  0  0  0  0  0  0  0  0
   -0.8000   -1.3856    0.0000 C   0  0  0  0  0  0  0  0  0  0  0  0
    0.0000   -2.7713    0.0000 H   0  0  0  0  0  0  0  0  0  0  0  0
  1  2  1  0  0  0  0
  1  3  1  0  0  0  0
  1  4  1  0  0  0  0
  4  5  1  0  0  0  0
  5  6  1  0  0  0  0
  5  7  2  0  0  0  0
  7  8  1  0  0  0  0
  7  9  1  0  0  0  0
  9 10  1  0  0  0  0
  9 11  2  0  0  0  0
 11 12  1  0  0  0  0
 11 13  1  0  0  0  0
 13  4  2  0  0  0  0
 13 14  1  0  0  0  0
M  END
> <ChemID>
100913

> <source_casrn>
644-97-3

> <CAS>
644-97-3

> <SMILES>
ClP(Cl)c1ccccc1

> <NAME>
Phosphonous dichloride, phenyl-

> <preferred_name>
Phenyl phosphorus dichloride

> <iupac>
phenylphosphonous dichloride

> <MPID>
100914

> <dsstox_substance_id>
DTXSID4027282

> <Canonical_QSARr>
ClP(Cl)c1ccccc1

> <InChI_Code_QSARr>
InChI=1S/C6H5Cl2P/c7-9(8)6-4-2-1-3-5-6/h1-5H

> <InChI Key_QSARr>
IMDXZWRLUZPMDH-UHFFFAOYSA-N

> <Salt_Solvent>
?

> <Ready_Biodeg>
0.0

$$$$
100917
  -INDIGO-08031722522D

 29 28  0  0  0  0  0  0  0  0999 V2000
    0.0001    0.0000    0.0000 P   0  0  0  0  0  0  0  0  0  0  0  0
    1.5757   -0.2779    0.0000 N   0  0  0  0  0  0  0  0  0  0  0  0
    2.1229   -1.7813    0.0000 C   0  0  0  0  0  0  0  0  0  0  0  0
    2.6702   -3.2849    0.0000 H   0  0  0  0  0  0  0  0  0  0  0  0
    3.6986   -2.0592    0.0000 H   0  0  0  0  0  0  0  0  0  0  0  0
    1.0944   -3.0071    0.0000 H   0  0  0  0  0  0  0  0  0  0  0  0
    2.6042    0.9479    0.0000 C   0  0  0  0  0  0  0  0  0  0  0  0
    4.1798    0.6700    0.0000 H   0  0  0  0  0  0  0  0  0  0  0  0
    3.6326    2.1735    0.0000 H   0  0  0  0  0  0  0  0  0  0  0  0
    3.1513   -0.5557    0.0000 H   0  0  0  0  0  0  0  0  0  0  0  0
    0.0001    1.6000    0.0000 N   0  0  0  0  0  0  0  0  0  0  0  0
    1.3856    2.4000    0.0000 C   0  0  0  0  0  0  0  0  0  0  0  0
    1.3856    4.0000    0.0000 H   0  0  0  0  0  0  0  0  0  0  0  0
    0.0001    3.2000    0.0000 H   0  0  0  0  0  0  0  0  0  0  0  0
    2.7713    3.2000    0.0000 H   0  0  0  0  0  0  0  0  0  0  0  0
   -1.3856    2.4000    0.0000 C   0  0  0  0  0  0  0  0  0  0  0  0
   -1.3856    4.0000    0.0000 H   0  0  0  0  0  0  0  0  0  0  0  0
   -2.7713    3.2000    0.0000 H   0  0  0  0  0  0  0  0  0  0  0  0
   -1.3856    0.8000    0.0000 H   0  0  0  0  0  0  0  0  0  0  0  0
   -1.5757   -0.2779    0.0000 N   0  0  0  0  0  0  0  0  0  0  0  0
   -2.1229   -1.7813    0.0000 C   0  0  0  0  0  0  0  0  0  0  0  0
   -2.6702   -3.2849    0.0000 H   0  0  0  0  0  0  0  0  0  0  0  0
   -3.6986   -2.0592    0.0000 H   0  0  0  0  0  0  0  0  0  0  0  0
   -1.0944   -3.0071    0.0000 H   0  0  0  0  0  0  0  0  0  0  0  0
   -2.6042    0.9479    0.0000 C   0  0  0  0  0  0  0  0  0  0  0  0
   -4.1798    0.6700    0.0000 H   0  0  0  0  0  0  0  0  0  0  0  0
   -3.6326    2.1735    0.0000 H   0  0  0  0  0  0  0  0  0  0  0  0
   -3.1513   -0.5557    0.0000 H   0  0  0  0  0  0  0  0  0  0  0  0
    0.0001   -1.6000    0.0000 O   0  0  0  0  0  0  0  0  0  0  0  0
  1  2  1  0  0  0  0
  2  3  1  0  0  0  0
  3  4  1  0  0  0  0
  3  5  1  0  0  0  0
  3  6  1  0  0  0  0
  2  7  1  0  0  0  0
  7  8  1  0  0  0  0
  7  9  1  0  0  0  0
  7 10  1  0  0  0  0
  1 11  1  0  0  0  0
 11 12  1  0  0  0  0
 12 13  1  0  0  0  0
 12 14  1  0  0  0  0
 12 15  1  0  0  0  0
 11 16  1  0  0  0  0
 16 17  1  0  0  0  0
 16 18  1  0  0  0  0
 16 19  1  0  0  0  0
  1 20  1  0  0  0  0
 20 21  1  0  0  0  0
 21 22  1  0  0  0  0
 21 23  1  0  0  0  0
 21 24  1  0  0  0  0
 20 25  1  0  0  0  0
 25 26  1  0  0  0  0
 25 27  1  0  0  0  0
 25 28  1  0  0  0  0
  1 29  2  0  0  0  0
M  END
> <ChemID>
100917

> <source_casrn>
680-31-9

> <CAS>
680-31-9

> <SMILES>
CN(C)P(=O)(N(C)C)N(C)C

> <NAME>
Phosphoric triamide, hexamethyl-

> <preferred_name>
Hexamethylphosphoramide

> <iupac>
N,N,N',N',N'',N''-hexamethylphosphoric triamide

> <MPID>
100918

> <dsstox_substance_id>
DTXSID6020694

> <Canonical_QSARr>
CN(C)P(=O)(N(C)C)N(C)C

> <InChI_Code_QSARr>
InChI=1S/C6H18N3OP/c1-7(2)11(10,8(3)4)9(5)6/h1-6H3

> <InChI Key_QSARr>
GNOIPBMMFNIUFM-UHFFFAOYSA-N

> <Salt_Solvent>
?

> <Ready_Biodeg>
0.0

$$$$
100922
  -INDIGO-08031722522D

 13 13  0  0  0  0  0  0  0  0999 V2000
    1.3857    0.8000    0.0000 O   0  0  0  0  0  0  0  0  0  0  0  0
    2.5747   -0.2706    0.0000 C   0  0  0  0  0  0  0  0  0  0  0  0
    4.1397    0.0621    0.0000 N   0  0  0  0  0  0  0  0  0  0  0  0
    4.6341    1.5837    0.0000 O   0  0  0  0  0  0  0  0  0  0  0  0
    5.2103   -1.1270    0.0000 O   0  0  0  0  0  0  0  0  0  0  0  0
    1.9239   -1.7323    0.0000 C   0  0  0  0  0  0  0  0  0  0  0  0
    2.7239   -3.1179    0.0000 H   0  0  0  0  0  0  0  0  0  0  0  0
    0.3326   -1.5650    0.0000 C   0  0  0  0  0  0  0  0  0  0  0  0
   -0.7380   -2.7541    0.0000 H   0  0  0  0  0  0  0  0  0  0  0  0
    0.0000   -0.0000    0.0000 C   0  0  0  0  0  0  0  0  0  0  0  0
   -1.4617    0.6508    0.0000 C   0  0  0  0  0  0  0  0  0  0  0  0
   -1.6289    2.2420    0.0000 H   0  0  0  0  0  0  0  0  0  0  0  0
   -2.7561   -0.2897    0.0000 O   0  0  0  0  0  0  0  0  0  0  0  0
  1  2  1  0  0  0  0
  2  3  1  0  0  0  0
  3  4  1  0  0  0  0
  3  5  2  0  0  0  0
  2  6  2  0  0  0  0
  6  7  1  0  0  0  0
  6  8  1  0  0  0  0
  8  9  1  0  0  0  0
  8 10  2  0  0  0  0
 10  1  1  0  0  0  0
 10 11  1  0  0  0  0
 11 12  1  0  0  0  0
 11 13  2  0  0  0  0
M  CHG  2   3   1   4  -1
M  END
> <ChemID>
100922

> <source_casrn>
698-63-5

> <CAS>
698-63-5

> <SMILES>
[O-][N+](=O)c1ccc(C=O)o1

> <NAME>
5-Nitro-2-furaldehyde

> <preferred_name>
5-Nitro-2-furaldehyde

> <iupac>
5-nitrofuran-2-carbaldehyde

> <MPID>
100922

> <dsstox_substance_id>
DTXSID30220097

> <Canonical_QSARr>
[O-][N+](=O)c1ccc(C=O)o1

> <InChI_Code_QSARr>
InChI=1S/C5H3NO4/c7-3-4-1-2-5(10-4)6(8)9/h1-3H

> <InChI Key_QSARr>
SXINBFXPADXIEY-UHFFFAOYSA-N

> <Salt_Solvent>
?

> <Ready_Biodeg>
1.0

$$$$
100926
  -INDIGO-08031722522D

 49 49  0  0  0  0  0  0  0  0999 V2000
   -0.0000    3.2000    0.0000 O   0  0  0  0  0  0  0  0  0  0  0  0
   -0.0000    4.8000    0.0000 H   0  0  0  0  0  0  0  0  0  0  0  0
   -1.3857    2.4000    0.0000 C   0  0  0  0  0  0  0  0  0  0  0  0
   -2.7714    3.2000    0.0000 C   0  0  0  0  0  0  0  0  0  0  0  0
   -2.7714    4.8000    0.0000 C   0  0  0  0  0  0  0  0  0  0  0  0
   -2.7714    6.4001    0.0000 C   0  0  0  0  0  0  0  0  0  0  0  0
   -2.7714    8.0000    0.0000 H   0  0  0  0  0  0  0  0  0  0  0  0
   -4.1569    7.2000    0.0000 H   0  0  0  0  0  0  0  0  0  0  0  0
   -1.3857    7.2000    0.0000 H   0  0  0  0  0  0  0  0  0  0  0  0
   -4.3713    4.8000    0.0000 C   0  0  0  0  0  0  0  0  0  0  0  0
   -5.9470    4.5222    0.0000 H   0  0  0  0  0  0  0  0  0  0  0  0
   -5.3998    6.0257    0.0000 H   0  0  0  0  0  0  0  0  0  0  0  0
   -3.8240    6.3035    0.0000 H   0  0  0  0  0  0  0  0  0  0  0  0
   -1.1712    4.8000    0.0000 C   0  0  0  0  0  0  0  0  0  0  0  0
   -0.3713    6.1857    0.0000 H   0  0  0  0  0  0  0  0  0  0  0  0
   -1.7186    6.3035    0.0000 H   0  0  0  0  0  0  0  0  0  0  0  0
   -1.7186    3.2966    0.0000 H   0  0  0  0  0  0  0  0  0  0  0  0
   -4.1569    2.4000    0.0000 C   0  0  0  0  0  0  0  0  0  0  0  0
   -5.5425    3.2000    0.0000 H   0  0  0  0  0  0  0  0  0  0  0  0
   -4.1569    0.8001    0.0000 C   0  0  0  0  0  0  0  0  0  0  0  0
   -5.5425    0.0000    0.0000 C   0  0  0  0  0  0  0  0  0  0  0  0
   -6.9282   -0.8000    0.0000 C   0  0  0  0  0  0  0  0  0  0  0  0
   -8.3138   -1.5999    0.0000 H   0  0  0  0  0  0  0  0  0  0  0  0
   -6.9282   -2.4000    0.0000 H   0  0  0  0  0  0  0  0  0  0  0  0
   -8.3138    0.0000    0.0000 H   0  0  0  0  0  0  0  0  0  0  0  0
   -6.3426    1.3856    0.0000 C   0  0  0  0  0  0  0  0  0  0  0  0
   -7.9182    1.6634    0.0000 H   0  0  0  0  0  0  0  0  0  0  0  0
   -6.8898    2.8892    0.0000 H   0  0  0  0  0  0  0  0  0  0  0  0
   -7.3710    0.1600    0.0000 H   0  0  0  0  0  0  0  0  0  0  0  0
   -4.7426   -1.3856    0.0000 C   0  0  0  0  0  0  0  0  0  0  0  0
   -3.7140   -2.6113    0.0000 H   0  0  0  0  0  0  0  0  0  0  0  0
   -5.2898   -2.8891    0.0000 H   0  0  0  0  0  0  0  0  0  0  0  0
   -6.3182   -1.6634    0.0000 H   0  0  0  0  0  0  0  0  0  0  0  0
   -2.7714    0.0000    0.0000 C   0  0  0  0  0  0  0  0  0  0  0  0
   -2.7714   -1.5999    0.0000 H   0  0  0  0  0  0  0  0  0  0  0  0
   -1.3857    0.8001    0.0000 C   0  0  0  0  0  0  0  0  0  0  0  0
   -0.0000    0.0000    0.0000 C   0  0  0  0  0  0  0  0  0  0  0  0
    1.3856   -0.8000    0.0000 C   0  0  0  0  0  0  0  0  0  0  0  0
    2.7713   -1.5999    0.0000 H   0  0  0  0  0  0  0  0  0  0  0  0
    1.3856   -2.4000    0.0000 H   0  0  0  0  0  0  0  0  0  0  0  0
    2.7713    0.0000    0.0000 H   0  0  0  0  0  0  0  0  0  0  0  0
   -0.7999   -1.3856    0.0000 C   0  0  0  0  0  0  0  0  0  0  0  0
   -1.8285   -2.6113    0.0000 H   0  0  0  0  0  0  0  0  0  0  0  0
   -0.2527   -2.8891    0.0000 H   0  0  0  0  0  0  0  0  0  0  0  0
    0.7757   -1.6634    0.0000 H   0  0  0  0  0  0  0  0  0  0  0  0
    0.8000    1.3856    0.0000 C   0  0  0  0  0  0  0  0  0  0  0  0
    1.3472    2.8892    0.0000 H   0  0  0  0  0  0  0  0  0  0  0  0
    2.3756    1.6634    0.0000 H   0  0  0  0  0  0  0  0  0  0  0  0
    1.8285    0.1600    0.0000 H   0  0  0  0  0  0  0  0  0  0  0  0
  1  2  1  0  0  0  0
  1  3  1  0  0  0  0
  3  4  1  0  0  0  0
  4  5  1  0  0  0  0
  5  6  1  0  0  0  0
  6  7  1  0  0  0  0
  6  8  1  0  0  0  0
  6  9  1  0  0  0  0
  5 10  1  0  0  0  0
 10 11  1  0  0  0  0
 10 12  1  0  0  0  0
 10 13  1  0  0  0  0
  5 14  1  0  0  0  0
 14 15  1  0  0  0  0
 14 16  1  0  0  0  0
 14 17  1  0  0  0  0
  4 18  2  0  0  0  0
 18 19  1  0  0  0  0
 18 20  1  0  0  0  0
 20 21  1  0  0  0  0
 21 22  1  0  0  0  0
 22 23  1  0  0  0  0
 22 24  1  0  0  0  0
 22 25  1  0  0  0  0
 21 26  1  0  0  0  0
 26 27  1  0  0  0  0
 26 28  1  0  0  0  0
 26 29  1  0  0  0  0
 21 30  1  0  0  0  0
 30 31  1  0  0  0  0
 30 32  1  0  0  0  0
 30 33  1  0  0  0  0
 20 34  2  0  0  0  0
 34 35  1  0  0  0  0
 34 36  1  0  0  0  0
 36  3  2  0  0  0  0
 36 37  1  0  0  0  0
 37 38  1  0  0  0  0
 38 39  1  0  0  0  0
 38 40  1  0  0  0  0
 38 41  1  0  0  0  0
 37 42  1  0  0  0  0
 42 43  1  0  0  0  0
 42 44  1  0  0  0  0
 42 45  1  0  0  0  0
 37 46  1  0  0  0  0
 46 47  1  0  0  0  0
 46 48  1  0  0  0  0
 46 49  1  0  0  0  0
M  END
> <ChemID>
100926

> <source_casrn>
732-26-3

> <CAS>
732-26-3

> <SMILES>
CC(C)(C)c1cc(c(O)c(c1)C(C)(C)C)C(C)(C)C

> <NAME>
Phenol, 2,4,6-tris(1,1-dimethylethyl)-

> <preferred_name>
2,4,6-Tris(tert-butyl)phenol

> <iupac>
2,4,6-tri-tert-butylphenol

> <MPID>
100926

> <dsstox_substance_id>
DTXSID2021311

> <Canonical_QSARr>
CC(C)(C)c1cc(c(O)c(c1)C(C)(C)C)C(C)(C)C

> <InChI_Code_QSARr>
InChI=1S/C18H30O/c1-16(2,3)12-10-13(17(4,5)6)15(19)14(11-12)18(7,8)9/h10-11,19H,1-9H3

> <InChI Key_QSARr>
PFEFOYRSMXVNEL-UHFFFAOYSA-N

> <Salt_Solvent>
?

> <Ready_Biodeg>
0.0

$$$$
100930
  -INDIGO-08031722522D

 26 27  0  0  0  0  0  0  0  0999 V2000
    0.0000    0.0000    0.0000 C   0  0  0  0  0  0  0  0  0  0  0  0
    1.3857    0.8000    0.0000 N   0  0  0  0  0  0  0  0  0  0  0  0
    1.3857    2.4000    0.0000 H   0  0  0  0  0  0  0  0  0  0  0  0
    2.7712    0.0000    0.0000 N   0  0  0  0  0  0  0  0  0  0  0  0
    2.7712   -1.6000    0.0000 H   0  0  0  0  0  0  0  0  0  0  0  0
    4.1569    0.8000    0.0000 C   0  0  0  0  0  0  0  0  0  0  0  0
    4.1569    2.4000    0.0000 C   0  0  0  0  0  0  0  0  0  0  0  0
    2.7712    3.2001    0.0000 Cl  0  0  0  0  0  0  0  0  0  0  0  0
    5.5426    3.2001    0.0000 C   0  0  0  0  0  0  0  0  0  0  0  0
    5.5426    4.8000    0.0000 H   0  0  0  0  0  0  0  0  0  0  0  0
    6.9281    2.4000    0.0000 C   0  0  0  0  0  0  0  0  0  0  0  0
    8.3138    3.2001    0.0000 H   0  0  0  0  0  0  0  0  0  0  0  0
    6.9281    0.8000    0.0000 C   0  0  0  0  0  0  0  0  0  0  0  0
    8.3138    0.0000    0.0000 H   0  0  0  0  0  0  0  0  0  0  0  0
    5.5426    0.0000    0.0000 C   0  0  0  0  0  0  0  0  0  0  0  0
    5.5426   -1.6000    0.0000 H   0  0  0  0  0  0  0  0  0  0  0  0
    0.0000   -1.6000    0.0000 C   0  0  0  0  0  0  0  0  0  0  0  0
    1.3857   -2.4001    0.0000 Cl  0  0  0  0  0  0  0  0  0  0  0  0
   -1.3857   -2.4001    0.0000 C   0  0  0  0  0  0  0  0  0  0  0  0
   -1.3857   -4.0000    0.0000 H   0  0  0  0  0  0  0  0  0  0  0  0
   -2.7712   -1.6000    0.0000 C   0  0  0  0  0  0  0  0  0  0  0  0
   -4.1569   -2.4001    0.0000 H   0  0  0  0  0  0  0  0  0  0  0  0
   -2.7712    0.0000    0.0000 C   0  0  0  0  0  0  0  0  0  0  0  0
   -4.1569    0.8000    0.0000 H   0  0  0  0  0  0  0  0  0  0  0  0
   -1.3857    0.8000    0.0000 C   0  0  0  0  0  0  0  0  0  0  0  0
   -1.3857    2.4000    0.0000 H   0  0  0  0  0  0  0  0  0  0  0  0
  1  2  1  0  0  0  0
  2  3  1  0  0  0  0
  2  4  1  0  0  0  0
  4  5  1  0  0  0  0
  4  6  1  0  0  0  0
  6  7  1  0  0  0  0
  7  8  1  0  0  0  0
  7  9  2  0  0  0  0
  9 10  1  0  0  0  0
  9 11  1  0  0  0  0
 11 12  1  0  0  0  0
 11 13  2  0  0  0  0
 13 14  1  0  0  0  0
 13 15  1  0  0  0  0
 15  6  2  0  0  0  0
 15 16  1  0  0  0  0
  1 17  1  0  0  0  0
 17 18  1  0  0  0  0
 17 19  2  0  0  0  0
 19 20  1  0  0  0  0
 19 21  1  0  0  0  0
 21 22  1  0  0  0  0
 21 23  2  0  0  0  0
 23 24  1  0  0  0  0
 23 25  1  0  0  0  0
 25  1  2  0  0  0  0
 25 26  1  0  0  0  0
M  END
> <ChemID>
100930

> <source_casrn>
782-74-1

> <CAS>
782-74-1

> <SMILES>
Clc1ccccc1NNc1ccccc1Cl

> <NAME>
Hydrazine, 1,2-bis(2-chlorophenyl)-

> <preferred_name>
1,2-Bis(2-chlorophenyl)hydrazine

> <iupac>
1,2-Bis(2-chlorophenyl)hydrazine

> <MPID>
100930

> <dsstox_substance_id>
DTXSID3061138

> <Canonical_QSARr>
Clc1ccccc1NNc1ccccc1Cl

> <InChI_Code_QSARr>
InChI=1S/C12H10Cl2N2/c13-9-5-1-3-7-11(9)15-16-12-8-4-2-6-10(12)14/h1-8,15-16H

> <InChI Key_QSARr>
IWKMQNKKYZERHI-UHFFFAOYSA-N

> <Salt_Solvent>
?

> <Ready_Biodeg>
0.0

$$$$
100934
  -INDIGO-08031722522D

 26 26  0  0  0  0  0  0  0  0999 V2000
    1.5758   -0.2778    0.0000 C   0  0  0  0  0  0  0  0  0  0  0  0
    3.1514   -0.5557    0.0000 H   0  0  0  0  0  0  0  0  0  0  0  0
    2.6041    0.9478    0.0000 H   0  0  0  0  0  0  0  0  0  0  0  0
    2.1230   -1.7813    0.0000 H   0  0  0  0  0  0  0  0  0  0  0  0
   -0.0000    0.0000    0.0000 C   0  0  0  0  0  0  0  0  0  0  0  0
    0.5472    1.5035    0.0000 H   0  0  0  0  0  0  0  0  0  0  0  0
   -1.3857    0.8000    0.0000 C   0  0  0  0  0  0  0  0  0  0  0  0
   -0.3572    2.0257    0.0000 H   0  0  0  0  0  0  0  0  0  0  0  0
   -2.4141    2.0257    0.0000 H   0  0  0  0  0  0  0  0  0  0  0  0
   -2.7712    0.0000    0.0000 C   0  0  0  0  0  0  0  0  0  0  0  0
   -3.3184    1.5035    0.0000 H   0  0  0  0  0  0  0  0  0  0  0  0
   -4.3470   -0.2778    0.0000 O   0  0  0  0  0  0  0  0  0  0  0  0
   -5.3754    0.9478    0.0000 C   0  0  0  0  0  0  0  0  0  0  0  0
   -4.8281    2.4513    0.0000 O   0  0  0  0  0  0  0  0  0  0  0  0
   -6.9512    0.6700    0.0000 C   0  0  0  0  0  0  0  0  0  0  0  0
   -8.5268    0.3922    0.0000 H   0  0  0  0  0  0  0  0  0  0  0  0
   -7.9796    1.8957    0.0000 H   0  0  0  0  0  0  0  0  0  0  0  0
   -7.4984   -0.8335    0.0000 H   0  0  0  0  0  0  0  0  0  0  0  0
   -2.7712   -1.6000    0.0000 O   0  0  0  0  0  0  0  0  0  0  0  0
   -1.3857   -2.4000    0.0000 C   0  0  0  0  0  0  0  0  0  0  0  0
   -0.3572   -3.6257    0.0000 H   0  0  0  0  0  0  0  0  0  0  0  0
   -2.4141   -3.6257    0.0000 C   0  0  0  0  0  0  0  0  0  0  0  0
   -3.4425   -4.8513    0.0000 H   0  0  0  0  0  0  0  0  0  0  0  0
   -1.8668   -5.1292    0.0000 H   0  0  0  0  0  0  0  0  0  0  0  0
   -3.9897   -3.3478    0.0000 H   0  0  0  0  0  0  0  0  0  0  0  0
   -0.0000   -1.6000    0.0000 O   0  0  0  0  0  0  0  0  0  0  0  0
  1  2  1  0  0  0  0
  1  3  1  0  0  0  0
  1  4  1  0  0  0  0
  1  5  1  0  0  0  0
  5  6  1  0  0  0  0
  5  7  1  0  0  0  0
  7  8  1  0  0  0  0
  7  9  1  0  0  0  0
  7 10  1  0  0  0  0
 10 11  1  0  0  0  0
 10 12  1  0  0  0  0
 12 13  1  0  0  0  0
 13 14  2  0  0  0  0
 13 15  1  0  0  0  0
 15 16  1  0  0  0  0
 15 17  1  0  0  0  0
 15 18  1  0  0  0  0
 10 19  1  0  0  0  0
 19 20  1  0  0  0  0
 20 21  1  0  0  0  0
 20 22  1  0  0  0  0
 22 23  1  0  0  0  0
 22 24  1  0  0  0  0
 22 25  1  0  0  0  0
 20 26  1  0  0  0  0
 26  5  1  0  0  0  0
M  END
> <ChemID>
100934

> <source_casrn>
828-00-2

> <CAS>
828-00-2

> <SMILES>
CC1OC(CC(C)O1)OC(C)=O

> <NAME>
1,3-Dioxan-4-ol, 2,6-dimethyl-, acetate

> <preferred_name>
Dimethoxane

> <iupac>
2,6-dimethyl-1,3-dioxan-4-yl acetate

> <MPID>
100934

> <dsstox_substance_id>
DTXSID6020480

> <Canonical_QSARr>
CC1OC(CC(C)O1)OC(C)=O

> <InChI_Code_QSARr>
InChI=1S/C8H14O4/c1-5-4-8(11-6(2)9)12-7(3)10-5/h5,7-8H,4H2,1-3H3

> <InChI Key_QSARr>
PHMNXPYGVPEQSJ-UHFFFAOYSA-N

> <Salt_Solvent>
?

> <Ready_Biodeg>
1.0

$$$$
100940
  -INDIGO-08031722522D

 16 16  0  0  0  0  0  0  0  0999 V2000
    3.0349    2.8161    0.0000 O   0  0  0  0  0  0  0  0  0  0  0  0
    2.0944    1.5217    0.0000 C   0  0  0  0  0  0  0  0  0  0  0  0
    2.5889    0.0000    0.0000 N   0  0  0  0  0  0  0  0  0  0  0  0
    4.1105   -0.4944    0.0000 C   0  0  0  0  0  0  0  0  0  0  0  0
    5.6322   -0.9889    0.0000 H   0  0  0  0  0  0  0  0  0  0  0  0
    5.2996    0.5762    0.0000 H   0  0  0  0  0  0  0  0  0  0  0  0
    4.4432   -2.0595    0.0000 H   0  0  0  0  0  0  0  0  0  0  0  0
    1.2944   -0.9405    0.0000 C   0  0  0  0  0  0  0  0  0  0  0  0
    2.3650   -2.1295    0.0000 H   0  0  0  0  0  0  0  0  0  0  0  0
    0.2238   -2.1295    0.0000 H   0  0  0  0  0  0  0  0  0  0  0  0
   -0.0000    0.0000    0.0000 C   0  0  0  0  0  0  0  0  0  0  0  0
   -0.8000   -1.3856    0.0000 H   0  0  0  0  0  0  0  0  0  0  0  0
   -1.4617    0.6508    0.0000 H   0  0  0  0  0  0  0  0  0  0  0  0
    0.4944    1.5217    0.0000 C   0  0  0  0  0  0  0  0  0  0  0  0
   -1.0706    1.8544    0.0000 H   0  0  0  0  0  0  0  0  0  0  0  0
    0.6617    3.1129    0.0000 H   0  0  0  0  0  0  0  0  0  0  0  0
  1  2  2  0  0  0  0
  2  3  1  0  0  0  0
  3  4  1  0  0  0  0
  4  5  1  0  0  0  0
  4  6  1  0  0  0  0
  4  7  1  0  0  0  0
  3  8  1  0  0  0  0
  8  9  1  0  0  0  0
  8 10  1  0  0  0  0
  8 11  1  0  0  0  0
 11 12  1  0  0  0  0
 11 13  1  0  0  0  0
 11 14  1  0  0  0  0
 14  2  1  0  0  0  0
 14 15  1  0  0  0  0
 14 16  1  0  0  0  0
M  END
> <ChemID>
100940

> <source_casrn>
872-50-4

> <CAS>
872-50-4

> <SMILES>
CN1CCCC1=O

> <NAME>
1-Methyl-2-pyrrolidone

> <preferred_name>
N-Methyl-2-pyrrolidone

> <iupac>
1-methylpyrrolidin-2-one

> <MPID>
100938

> <dsstox_substance_id>
DTXSID6020856

> <Canonical_QSARr>
CN1CCCC1=O

> <InChI_Code_QSARr>
InChI=1S/C5H9NO/c1-6-4-2-3-5(6)7/h2-4H2,1H3

> <InChI Key_QSARr>
SECXISVLQFMRJM-UHFFFAOYSA-N

> <Salt_Solvent>
?

> <Ready_Biodeg>
1.0

$$$$
100944
  -INDIGO-08031722522D

 19 20  0  0  0  0  0  0  0  0999 V2000
   -3.6161    2.0161    0.0000 O   0  0  0  0  0  0  0  0  0  0  0  0
   -2.0944    1.5217    0.0000 C   0  0  0  0  0  0  0  0  0  0  0  0
   -1.6000   -0.0000    0.0000 C   0  0  0  0  0  0  0  0  0  0  0  0
   -3.1913    0.1672    0.0000 H   0  0  0  0  0  0  0  0  0  0  0  0
    0.0000   -0.0000    0.0000 C   0  0  0  0  0  0  0  0  0  0  0  0
    1.5913    0.1672    0.0000 H   0  0  0  0  0  0  0  0  0  0  0  0
    0.8000   -1.3857    0.0000 C   0  0  0  0  0  0  0  0  0  0  0  0
    2.0257   -2.4141    0.0000 H   0  0  0  0  0  0  0  0  0  0  0  0
    2.3035   -0.8384    0.0000 H   0  0  0  0  0  0  0  0  0  0  0  0
    0.0000   -2.7713    0.0000 C   0  0  0  0  0  0  0  0  0  0  0  0
    0.8000   -4.1569    0.0000 H   0  0  0  0  0  0  0  0  0  0  0  0
   -1.6000   -2.7713    0.0000 C   0  0  0  0  0  0  0  0  0  0  0  0
   -2.4000   -4.1569    0.0000 H   0  0  0  0  0  0  0  0  0  0  0  0
   -2.4000   -1.3857    0.0000 C   0  0  0  0  0  0  0  0  0  0  0  0
   -3.9035   -0.8384    0.0000 H   0  0  0  0  0  0  0  0  0  0  0  0
   -3.6257   -2.4141    0.0000 H   0  0  0  0  0  0  0  0  0  0  0  0
    0.4944    1.5217    0.0000 C   0  0  0  0  0  0  0  0  0  0  0  0
    2.0161    2.0161    0.0000 O   0  0  0  0  0  0  0  0  0  0  0  0
   -0.8000    2.4621    0.0000 O   0  0  0  0  0  0  0  0  0  0  0  0
  1  2  2  0  0  0  0
  2  3  1  0  0  0  0
  3  4  1  0  0  0  0
  3  5  1  0  0  0  0
  5  6  1  0  0  0  0
  5  7  1  0  0  0  0
  7  8  1  0  0  0  0
  7  9  1  0  0  0  0
  7 10  1  0  0  0  0
 10 11  1  0  0  0  0
 10 12  2  0  0  0  0
 12 13  1  0  0  0  0
 12 14  1  0  0  0  0
 14  3  1  0  0  0  0
 14 15  1  0  0  0  0
 14 16  1  0  0  0  0
  5 17  1  0  0  0  0
 17 18  2  0  0  0  0
 17 19  1  0  0  0  0
 19  2  1  0  0  0  0
M  END
> <ChemID>
100944

> <source_casrn>
935-79-5

> <CAS>
85-43-8

> <SMILES>
O=C(OC(=O)C1CC=CC2)C12

> <NAME>
1,3-Isobenzofurandione, 3a,4,7,7a-tetrahydro-, cis-

> <preferred_name>
trans-4-Cyclohexene-1,2-dicarboxylic anhydride

> <iupac>
?

> <MPID>
100942

> <dsstox_substance_id>
DTXSID3026516

> <Canonical_QSARr>
O=C1OC(=O)C2CC=CCC12

> <InChI_Code_QSARr>
InChI=1S/C8H8O3/c9-7-5-3-1-2-4-6(5)8(10)11-7/h1-2,5-6H,3-4H2

> <InChI Key_QSARr>
KMOUUZVZFBCRAM-UHFFFAOYSA-N

> <Salt_Solvent>
?

> <Ready_Biodeg>
0.0

$$$$
100947
  -INDIGO-08031722522D

 54 54  0  0  0  0  0  0  0  0999 V2000
   -0.0001    0.0000    0.0000 N   0  0  0  0  0  0  0  0  0  0  0  0
    1.3855    0.7999    0.0000 C   0  0  0  0  0  0  0  0  0  0  0  0
    1.9979    2.2782    0.0000 H   0  0  0  0  0  0  0  0  0  0  0  0
    0.7734    2.2782    0.0000 H   0  0  0  0  0  0  0  0  0  0  0  0
    2.7714    0.0000    0.0000 C   0  0  0  0  0  0  0  0  0  0  0  0
    4.1570    0.8001    0.0000 C   0  0  0  0  0  0  0  0  0  0  0  0
    4.1570    2.4000    0.0000 H   0  0  0  0  0  0  0  0  0  0  0  0
    5.5426    0.0000    0.0000 C   0  0  0  0  0  0  0  0  0  0  0  0
    6.9282    0.8001    0.0000 H   0  0  0  0  0  0  0  0  0  0  0  0
    5.5426   -1.6000    0.0000 C   0  0  0  0  0  0  0  0  0  0  0  0
    6.9282   -2.4000    0.0000 H   0  0  0  0  0  0  0  0  0  0  0  0
    4.1570   -2.4000    0.0000 C   0  0  0  0  0  0  0  0  0  0  0  0
    4.1570   -4.0000    0.0000 H   0  0  0  0  0  0  0  0  0  0  0  0
    2.7714   -1.6000    0.0000 C   0  0  0  0  0  0  0  0  0  0  0  0
    1.3855   -2.4000    0.0000 H   0  0  0  0  0  0  0  0  0  0  0  0
   -0.7999    1.3857    0.0000 C   0  0  0  0  0  0  0  0  0  0  0  0
   -1.6000    2.7713    0.0000 H   0  0  0  0  0  0  0  0  0  0  0  0
   -1.6482    1.6609    0.0000 H   0  0  0  0  0  0  0  0  0  0  0  0
   -0.0001    2.7713    0.0000 H   0  0  0  0  0  0  0  0  0  0  0  0
    0.8000   -1.3857    0.0000 C   0  0  0  0  0  0  0  0  0  0  0  0
   -0.0001   -2.7713    0.0000 H   0  0  0  0  0  0  0  0  0  0  0  0
   -0.7999   -1.3857    0.0000 H   0  0  0  0  0  0  0  0  0  0  0  0
    1.6001    0.0000    0.0000 H   0  0  0  0  0  0  0  0  0  0  0  0
   -1.5036   -0.5472    0.0000 C   0  0  0  0  0  0  0  0  0  0  0  0
   -2.3630   -1.8966    0.0000 H   0  0  0  0  0  0  0  0  0  0  0  0
   -1.1573   -2.1093    0.0000 H   0  0  0  0  0  0  0  0  0  0  0  0
   -2.7292    0.4812    0.0000 C   0  0  0  0  0  0  0  0  0  0  0  0
   -2.4243    1.3193    0.0000 H   0  0  0  0  0  0  0  0  0  0  0  0
   -3.0755    2.0433    0.0000 H   0  0  0  0  0  0  0  0  0  0  0  0
   -4.2327   -0.0660    0.0000 C   0  0  0  0  0  0  0  0  0  0  0  0
   -5.0924   -1.4154    0.0000 H   0  0  0  0  0  0  0  0  0  0  0  0
   -3.8864   -1.6280    0.0000 H   0  0  0  0  0  0  0  0  0  0  0  0
   -5.4583    0.9624    0.0000 C   0  0  0  0  0  0  0  0  0  0  0  0
   -4.5986    2.3119    0.0000 H   0  0  0  0  0  0  0  0  0  0  0  0
   -5.8046    2.5246    0.0000 H   0  0  0  0  0  0  0  0  0  0  0  0
   -6.9618    0.4152    0.0000 C   0  0  0  0  0  0  0  0  0  0  0  0
   -7.8215   -0.9342    0.0000 H   0  0  0  0  0  0  0  0  0  0  0  0
   -6.6155   -1.1468    0.0000 H   0  0  0  0  0  0  0  0  0  0  0  0
   -8.1874    1.4436    0.0000 C   0  0  0  0  0  0  0  0  0  0  0  0
   -7.3280    2.7931    0.0000 H   0  0  0  0  0  0  0  0  0  0  0  0
   -8.5337    3.0058    0.0000 H   0  0  0  0  0  0  0  0  0  0  0  0
   -9.6909    0.8964    0.0000 C   0  0  0  0  0  0  0  0  0  0  0  0
  -10.5506   -0.4530    0.0000 H   0  0  0  0  0  0  0  0  0  0  0  0
   -9.3446   -0.6656    0.0000 H   0  0  0  0  0  0  0  0  0  0  0  0
  -10.9168    1.9250    0.0000 C   0  0  0  0  0  0  0  0  0  0  0  0
  -10.0571    3.2743    0.0000 H   0  0  0  0  0  0  0  0  0  0  0  0
  -11.2631    3.4870    0.0000 H   0  0  0  0  0  0  0  0  0  0  0  0
  -12.4203    1.3777    0.0000 C   0  0  0  0  0  0  0  0  0  0  0  0
  -13.2800    0.0282    0.0000 H   0  0  0  0  0  0  0  0  0  0  0  0
  -12.0740   -0.1844    0.0000 H   0  0  0  0  0  0  0  0  0  0  0  0
  -13.6459    2.4062    0.0000 C   0  0  0  0  0  0  0  0  0  0  0  0
  -14.8715    3.4346    0.0000 H   0  0  0  0  0  0  0  0  0  0  0  0
  -15.1494    1.8589    0.0000 H   0  0  0  0  0  0  0  0  0  0  0  0
  -13.3680    3.9818    0.0000 H   0  0  0  0  0  0  0  0  0  0  0  0
  1  2  1  0  0  0  0
  2  3  1  0  0  0  0
  2  4  1  0  0  0  0
  2  5  1  0  0  0  0
  5  6  1  0  0  0  0
  6  7  1  0  0  0  0
  6  8  2  0  0  0  0
  8  9  1  0  0  0  0
  8 10  1  0  0  0  0
 10 11  1  0  0  0  0
 10 12  2  0  0  0  0
 12 13  1  0  0  0  0
 12 14  1  0  0  0  0
 14  5  2  0  0  0  0
 14 15  1  0  0  0  0
  1 16  1  0  0  0  0
 16 17  1  0  0  0  0
 16 18  1  0  0  0  0
 16 19  1  0  0  0  0
  1 20  1  0  0  0  0
 20 21  1  0  0  0  0
 20 22  1  0  0  0  0
 20 23  1  0  0  0  0
  1 24  1  0  0  0  0
 24 25  1  0  0  0  0
 24 26  1  0  0  0  0
 24 27  1  0  0  0  0
 27 28  1  0  0  0  0
 27 29  1  0  0  0  0
 27 30  1  0  0  0  0
 30 31  1  0  0  0  0
 30 32  1  0  0  0  0
 30 33  1  0  0  0  0
 33 34  1  0  0  0  0
 33 35  1  0  0  0  0
 33 36  1  0  0  0  0
 36 37  1  0  0  0  0
 36 38  1  0  0  0  0
 36 39  1  0  0  0  0
 39 40  1  0  0  0  0
 39 41  1  0  0  0  0
 39 42  1  0  0  0  0
 42 43  1  0  0  0  0
 42 44  1  0  0  0  0
 42 45  1  0  0  0  0
 45 46  1  0  0  0  0
 45 47  1  0  0  0  0
 45 48  1  0  0  0  0
 48 49  1  0  0  0  0
 48 50  1  0  0  0  0
 48 51  1  0  0  0  0
 51 52  1  0  0  0  0
 51 53  1  0  0  0  0
 51 54  1  0  0  0  0
M  CHG  1   1   1
M  END
> <ChemID>
100947

> <source_casrn>
965-32-2

> <CAS>
965-32-2

> <SMILES>
[Cl-].CCCCCCCCCC[N+](C)(C)Cc1ccccc1

> <NAME>
Benzenemethanaminium, N-decyl-N,N-dimethyl-, chloride

> <preferred_name>
Benzyldimethyldecylammonium chloride

> <iupac>
N-benzyl-N,N-dimethyldecan-1-aminium chloride

> <MPID>
100945

> <dsstox_substance_id>
DTXSID7040780

> <Canonical_QSARr>
CCCCCCCCCC[N+](C)(C)Cc1ccccc1

> <InChI_Code_QSARr>
InChI=1S/C19H34N/c1-4-5-6-7-8-9-10-14-17-20(2,3)18-19-15-12-11-13-16-19/h11-13,15-16H,4-10,14,17-18H2,1-3H3/q+1

> <InChI Key_QSARr>
UARILQSOMYIQCM-UHFFFAOYSA-N

> <Salt_Solvent>
[Cl-]

> <Ready_Biodeg>
0.0

$$$$
100950
  -INDIGO-08031722522D

 16 16  0  0  0  0  0  0  0  0999 V2000
    0.0001   -0.0000    0.0000 C   0  0  0  0  0  0  0  0  0  0  0  0
    0.0001   -1.6000    0.0000 C   0  0  0  0  0  0  0  0  0  0  0  0
    1.3856   -2.4000    0.0000 H   0  0  0  0  0  0  0  0  0  0  0  0
   -1.3856   -2.4000    0.0000 C   0  0  0  0  0  0  0  0  0  0  0  0
   -1.3856   -4.0000    0.0000 H   0  0  0  0  0  0  0  0  0  0  0  0
   -2.7712   -1.6000    0.0000 C   0  0  0  0  0  0  0  0  0  0  0  0
   -4.1569   -2.4000    0.0000 Cl  0  0  0  0  0  0  0  0  0  0  0  0
   -2.7712   -0.0000    0.0000 C   0  0  0  0  0  0  0  0  0  0  0  0
   -4.1569    0.8000    0.0000 H   0  0  0  0  0  0  0  0  0  0  0  0
   -1.3856    0.8000    0.0000 C   0  0  0  0  0  0  0  0  0  0  0  0
   -1.3856    2.4000    0.0000 H   0  0  0  0  0  0  0  0  0  0  0  0
    1.3856    0.8000    0.0000 C   0  0  0  0  0  0  0  0  0  0  0  0
    1.3856    2.4000    0.0000 H   0  0  0  0  0  0  0  0  0  0  0  0
    2.7713   -0.0000    0.0000 C   0  0  0  0  0  0  0  0  0  0  0  0
    4.1569    0.8000    0.0000 H   0  0  0  0  0  0  0  0  0  0  0  0
    2.7713   -1.6000    0.0000 H   0  0  0  0  0  0  0  0  0  0  0  0
  1  2  1  0  0  0  0
  2  3  1  0  0  0  0
  2  4  2  0  0  0  0
  4  5  1  0  0  0  0
  4  6  1  0  0  0  0
  6  7  1  0  0  0  0
  6  8  2  0  0  0  0
  8  9  1  0  0  0  0
  8 10  1  0  0  0  0
 10  1  2  0  0  0  0
 10 11  1  0  0  0  0
  1 12  1  0  0  0  0
 12 13  1  0  0  0  0
 12 14  2  0  0  0  0
 14 15  1  0  0  0  0
 14 16  1  0  0  0  0
M  END
> <ChemID>
100950

> <source_casrn>
1073-67-2

> <CAS>
1073-67-2

> <SMILES>
C=Cc1ccc(Cl)cc1

> <NAME>
Benzene, 1-chloro-4-ethenyl-

> <preferred_name>
Benzene, 1-chloro-4-ethenyl-

> <iupac>
1-chloro-4-ethenylbenzene

> <MPID>
100947

> <dsstox_substance_id>
DTXSID4061464

> <Canonical_QSARr>
C=Cc1ccc(Cl)cc1

> <InChI_Code_QSARr>
InChI=1S/C8H7Cl/c1-2-7-3-5-8(9)6-4-7/h2-6H,1H2

> <InChI Key_QSARr>
KTZVZZJJVJQZHV-UHFFFAOYSA-N

> <Salt_Solvent>
?

> <Ready_Biodeg>
0.0

$$$$
100954
  -INDIGO-08031722522D

 76 75  0  0  0  0  0  0  0  0999 V2000
   -0.0001   -0.0001    0.0000 N   0  0  0  0  0  0  0  0  0  0  0  0
    0.7999    1.3857    0.0000 C   0  0  0  0  0  0  0  0  0  0  0  0
    0.5913    2.9720    0.0000 H   0  0  0  0  0  0  0  0  0  0  0  0
   -0.4694    2.3595    0.0000 H   0  0  0  0  0  0  0  0  0  0  0  0
    2.3756    1.6634    0.0000 C   0  0  0  0  0  0  0  0  0  0  0  0
    2.8568    0.1376    0.0000 H   0  0  0  0  0  0  0  0  0  0  0  0
    3.7948    0.9248    0.0000 H   0  0  0  0  0  0  0  0  0  0  0  0
    2.9230    3.1670    0.0000 C   0  0  0  0  0  0  0  0  0  0  0  0
    2.4417    4.6928    0.0000 H   0  0  0  0  0  0  0  0  0  0  0  0
    1.5037    3.9059    0.0000 H   0  0  0  0  0  0  0  0  0  0  0  0
    4.4987    3.4448    0.0000 C   0  0  0  0  0  0  0  0  0  0  0  0
    4.9796    1.9190    0.0000 H   0  0  0  0  0  0  0  0  0  0  0  0
    5.9179    2.7062    0.0000 H   0  0  0  0  0  0  0  0  0  0  0  0
    5.0457    4.9483    0.0000 C   0  0  0  0  0  0  0  0  0  0  0  0
    4.5648    6.4742    0.0000 H   0  0  0  0  0  0  0  0  0  0  0  0
    3.6268    5.6873    0.0000 H   0  0  0  0  0  0  0  0  0  0  0  0
    6.6214    5.2261    0.0000 C   0  0  0  0  0  0  0  0  0  0  0  0
    7.1027    3.7003    0.0000 H   0  0  0  0  0  0  0  0  0  0  0  0
    8.0406    4.4875    0.0000 H   0  0  0  0  0  0  0  0  0  0  0  0
    7.1688    6.7297    0.0000 C   0  0  0  0  0  0  0  0  0  0  0  0
    6.6875    8.2555    0.0000 H   0  0  0  0  0  0  0  0  0  0  0  0
    5.7495    7.4686    0.0000 H   0  0  0  0  0  0  0  0  0  0  0  0
    8.7445    7.0074    0.0000 C   0  0  0  0  0  0  0  0  0  0  0  0
   10.3202    7.2855    0.0000 H   0  0  0  0  0  0  0  0  0  0  0  0
    9.2919    8.5110    0.0000 H   0  0  0  0  0  0  0  0  0  0  0  0
    9.7728    5.7819    0.0000 H   0  0  0  0  0  0  0  0  0  0  0  0
    0.7999   -1.3856    0.0000 C   0  0  0  0  0  0  0  0  0  0  0  0
    2.2781   -1.9981    0.0000 H   0  0  0  0  0  0  0  0  0  0  0  0
    2.2781   -0.7735    0.0000 H   0  0  0  0  0  0  0  0  0  0  0  0
    0.2528   -2.8892    0.0000 C   0  0  0  0  0  0  0  0  0  0  0  0
   -1.3092   -2.5429    0.0000 H   0  0  0  0  0  0  0  0  0  0  0  0
   -1.0965   -3.7488    0.0000 H   0  0  0  0  0  0  0  0  0  0  0  0
    1.2812   -4.1147    0.0000 C   0  0  0  0  0  0  0  0  0  0  0  0
    2.8432   -4.4610    0.0000 H   0  0  0  0  0  0  0  0  0  0  0  0
    2.6305   -3.2551    0.0000 H   0  0  0  0  0  0  0  0  0  0  0  0
    0.7341   -5.6183    0.0000 C   0  0  0  0  0  0  0  0  0  0  0  0
   -0.8279   -5.2720    0.0000 H   0  0  0  0  0  0  0  0  0  0  0  0
   -0.6153   -6.4780    0.0000 H   0  0  0  0  0  0  0  0  0  0  0  0
    1.7624   -6.8439    0.0000 C   0  0  0  0  0  0  0  0  0  0  0  0
    3.3245   -7.1902    0.0000 H   0  0  0  0  0  0  0  0  0  0  0  0
    3.1118   -5.9843    0.0000 H   0  0  0  0  0  0  0  0  0  0  0  0
    1.2154   -8.3475    0.0000 C   0  0  0  0  0  0  0  0  0  0  0  0
   -0.3467   -8.0012    0.0000 H   0  0  0  0  0  0  0  0  0  0  0  0
   -0.1343   -9.2071    0.0000 H   0  0  0  0  0  0  0  0  0  0  0  0
    2.2437   -9.5733    0.0000 C   0  0  0  0  0  0  0  0  0  0  0  0
    3.8057   -9.9196    0.0000 H   0  0  0  0  0  0  0  0  0  0  0  0
    3.5931   -8.7134    0.0000 H   0  0  0  0  0  0  0  0  0  0  0  0
    1.6963  -11.0766    0.0000 C   0  0  0  0  0  0  0  0  0  0  0  0
    1.1493  -12.5802    0.0000 H   0  0  0  0  0  0  0  0  0  0  0  0
    2.7249  -12.3025    0.0000 H   0  0  0  0  0  0  0  0  0  0  0  0
    0.1206  -11.3547    0.0000 H   0  0  0  0  0  0  0  0  0  0  0  0
   -1.5999   -0.0001    0.0000 C   0  0  0  0  0  0  0  0  0  0  0  0
   -2.8692   -0.9740    0.0000 H   0  0  0  0  0  0  0  0  0  0  0  0
   -1.8089   -1.5864    0.0000 H   0  0  0  0  0  0  0  0  0  0  0  0
   -2.6286    1.2257    0.0000 C   0  0  0  0  0  0  0  0  0  0  0  0
   -1.5475    2.4052    0.0000 H   0  0  0  0  0  0  0  0  0  0  0  0
   -2.6981    2.8243    0.0000 H   0  0  0  0  0  0  0  0  0  0  0  0
   -4.2043    0.9480    0.0000 C   0  0  0  0  0  0  0  0  0  0  0  0
   -5.2851   -0.2318    0.0000 H   0  0  0  0  0  0  0  0  0  0  0  0
   -4.1344   -0.6506    0.0000 H   0  0  0  0  0  0  0  0  0  0  0  0
   -5.2326    2.1735    0.0000 C   0  0  0  0  0  0  0  0  0  0  0  0
   -4.1518    3.3530    0.0000 H   0  0  0  0  0  0  0  0  0  0  0  0
   -5.3025    3.7721    0.0000 H   0  0  0  0  0  0  0  0  0  0  0  0
   -6.8083    1.8958    0.0000 C   0  0  0  0  0  0  0  0  0  0  0  0
   -7.8894    0.7159    0.0000 H   0  0  0  0  0  0  0  0  0  0  0  0
   -6.7384    0.2972    0.0000 H   0  0  0  0  0  0  0  0  0  0  0  0
   -7.8369    3.1213    0.0000 C   0  0  0  0  0  0  0  0  0  0  0  0
   -6.7558    4.3008    0.0000 H   0  0  0  0  0  0  0  0  0  0  0  0
   -7.9065    4.7198    0.0000 H   0  0  0  0  0  0  0  0  0  0  0  0
   -9.4126    2.8436    0.0000 C   0  0  0  0  0  0  0  0  0  0  0  0
  -10.4934    1.6637    0.0000 H   0  0  0  0  0  0  0  0  0  0  0  0
   -9.3427    1.2450    0.0000 H   0  0  0  0  0  0  0  0  0  0  0  0
  -10.4409    4.0691    0.0000 C   0  0  0  0  0  0  0  0  0  0  0  0
  -11.4692    5.2950    0.0000 H   0  0  0  0  0  0  0  0  0  0  0  0
  -12.0166    3.7914    0.0000 H   0  0  0  0  0  0  0  0  0  0  0  0
   -9.8935    5.5727    0.0000 H   0  0  0  0  0  0  0  0  0  0  0  0
  1  2  1  0  0  0  0
  2  3  1  0  0  0  0
  2  4  1  0  0  0  0
  2  5  1  0  0  0  0
  5  6  1  0  0  0  0
  5  7  1  0  0  0  0
  5  8  1  0  0  0  0
  8  9  1  0  0  0  0
  8 10  1  0  0  0  0
  8 11  1  0  0  0  0
 11 12  1  0  0  0  0
 11 13  1  0  0  0  0
 11 14  1  0  0  0  0
 14 15  1  0  0  0  0
 14 16  1  0  0  0  0
 14 17  1  0  0  0  0
 17 18  1  0  0  0  0
 17 19  1  0  0  0  0
 17 20  1  0  0  0  0
 20 21  1  0  0  0  0
 20 22  1  0  0  0  0
 20 23  1  0  0  0  0
 23 24  1  0  0  0  0
 23 25  1  0  0  0  0
 23 26  1  0  0  0  0
  1 27  1  0  0  0  0
 27 28  1  0  0  0  0
 27 29  1  0  0  0  0
 27 30  1  0  0  0  0
 30 31  1  0  0  0  0
 30 32  1  0  0  0  0
 30 33  1  0  0  0  0
 33 34  1  0  0  0  0
 33 35  1  0  0  0  0
 33 36  1  0  0  0  0
 36 37  1  0  0  0  0
 36 38  1  0  0  0  0
 36 39  1  0  0  0  0
 39 40  1  0  0  0  0
 39 41  1  0  0  0  0
 39 42  1  0  0  0  0
 42 43  1  0  0  0  0
 42 44  1  0  0  0  0
 42 45  1  0  0  0  0
 45 46  1  0  0  0  0
 45 47  1  0  0  0  0
 45 48  1  0  0  0  0
 48 49  1  0  0  0  0
 48 50  1  0  0  0  0
 48 51  1  0  0  0  0
  1 52  1  0  0  0  0
 52 53  1  0  0  0  0
 52 54  1  0  0  0  0
 52 55  1  0  0  0  0
 55 56  1  0  0  0  0
 55 57  1  0  0  0  0
 55 58  1  0  0  0  0
 58 59  1  0  0  0  0
 58 60  1  0  0  0  0
 58 61  1  0  0  0  0
 61 62  1  0  0  0  0
 61 63  1  0  0  0  0
 61 64  1  0  0  0  0
 64 65  1  0  0  0  0
 64 66  1  0  0  0  0
 64 67  1  0  0  0  0
 67 68  1  0  0  0  0
 67 69  1  0  0  0  0
 67 70  1  0  0  0  0
 70 71  1  0  0  0  0
 70 72  1  0  0  0  0
 70 73  1  0  0  0  0
 73 74  1  0  0  0  0
 73 75  1  0  0  0  0
 73 76  1  0  0  0  0
M  END
> <ChemID>
100954

> <source_casrn>
1116-76-3

> <CAS>
1116-76-3

> <SMILES>
CCCCCCCCN(CCCCCCCC)CCCCCCCC

> <NAME>
1-Octanamine, N,N-dioctyl-

> <preferred_name>
Trioctylamine

> <iupac>
N,N-dioctyloctan-1-amine

> <MPID>
100951

> <dsstox_substance_id>
DTXSID3047635

> <Canonical_QSARr>
CCCCCCCCN(CCCCCCCC)CCCCCCCC

> <InChI_Code_QSARr>
InChI=1S/C24H51N/c1-4-7-10-13-16-19-22-25(23-20-17-14-11-8-5-2)24-21-18-15-12-9-6-3/h4-24H2,1-3H3

> <InChI Key_QSARr>
XTAZYLNFDRKIHJ-UHFFFAOYSA-N

> <Salt_Solvent>
?

> <Ready_Biodeg>
1.0

$$$$
100959
  -INDIGO-08031722522D

 24 24  0  0  0  0  0  0  0  0999 V2000
   -4.1569    0.8000    0.0000 O   0  0  0  0  0  0  0  0  0  0  0  0
   -2.7712   -0.0000    0.0000 C   0  0  0  0  0  0  0  0  0  0  0  0
   -2.7714   -1.6000    0.0000 C   0  0  0  0  0  0  0  0  0  0  0  0
   -4.1569   -2.4000    0.0000 O   0  0  0  0  0  0  0  0  0  0  0  0
   -4.1569   -4.0000    0.0000 H   0  0  0  0  0  0  0  0  0  0  0  0
   -1.3856   -2.4000    0.0000 C   0  0  0  0  0  0  0  0  0  0  0  0
   -1.3856   -4.0000    0.0000 H   0  0  0  0  0  0  0  0  0  0  0  0
    0.0001   -1.6000    0.0000 C   0  0  0  0  0  0  0  0  0  0  0  0
    1.3856   -2.4000    0.0000 H   0  0  0  0  0  0  0  0  0  0  0  0
    0.0001   -0.0000    0.0000 C   0  0  0  0  0  0  0  0  0  0  0  0
    1.3856    0.8000    0.0000 C   0  0  0  0  0  0  0  0  0  0  0  0
    1.3856    2.4000    0.0000 H   0  0  0  0  0  0  0  0  0  0  0  0
    2.7714   -0.0000    0.0000 C   0  0  0  0  0  0  0  0  0  0  0  0
    2.7714   -1.6000    0.0000 H   0  0  0  0  0  0  0  0  0  0  0  0
    4.1569    0.8000    0.0000 C   0  0  0  0  0  0  0  0  0  0  0  0
    4.1569    2.4000    0.0000 O   0  0  0  0  0  0  0  0  0  0  0  0
    5.5427   -0.0000    0.0000 O   0  0  0  0  0  0  0  0  0  0  0  0
    6.9282    0.8000    0.0000 H   0  0  0  0  0  0  0  0  0  0  0  0
   -1.3856    0.8000    0.0000 C   0  0  0  0  0  0  0  0  0  0  0  0
   -1.3856    2.4000    0.0000 H   0  0  0  0  0  0  0  0  0  0  0  0
   -5.5425   -0.0000    0.0000 C   0  0  0  0  0  0  0  0  0  0  0  0
   -6.9282    0.8000    0.0000 H   0  0  0  0  0  0  0  0  0  0  0  0
   -6.9282   -0.8000    0.0000 H   0  0  0  0  0  0  0  0  0  0  0  0
   -5.5427    1.6000    0.0000 H   0  0  0  0  0  0  0  0  0  0  0  0
  1  2  1  0  0  0  0
  2  3  1  0  0  0  0
  3  4  1  0  0  0  0
  4  5  1  0  0  0  0
  3  6  2  0  0  0  0
  6  7  1  0  0  0  0
  6  8  1  0  0  0  0
  8  9  1  0  0  0  0
  8 10  2  0  0  0  0
 10 11  1  0  0  0  0
 11 12  1  0  0  0  0
 11 13  2  0  0  0  0
 13 14  1  0  0  0  0
 13 15  1  0  0  0  0
 15 16  2  0  0  0  0
 15 17  1  0  0  0  0
 17 18  1  0  0  0  0
 10 19  1  0  0  0  0
 19  2  2  0  0  0  0
 19 20  1  0  0  0  0
  1 21  1  0  0  0  0
 21 22  1  0  0  0  0
 21 23  1  0  0  0  0
 21 24  1  0  0  0  0
M  END
> <ChemID>
100959

> <source_casrn>
1135-24-6

> <CAS>
1135-24-6

> <SMILES>
COc1cc(C=CC(O)=O)ccc1O

> <NAME>
4-Hydroxy-3-methoxycinnamic acid

> <preferred_name>
Ferulic acid

> <iupac>
3-(4-hydroxy-3-methoxyphenyl)prop-2-enoic acid

> <MPID>
100956

> <dsstox_substance_id>
DTXSID5040673

> <Canonical_QSARr>
COc1cc(C=CC(O)=O)ccc1O

> <InChI_Code_QSARr>
InChI=1S/C10H10O4/c1-14-9-6-7(2-4-8(9)11)3-5-10(12)13/h2-6,11H,1H3,(H,12,13)/b5-3+

> <InChI Key_QSARr>
KSEBMYQBYZTDHS-HWKANZROSA-N

> <Salt_Solvent>
?

> <Ready_Biodeg>
1.0

$$$$
100963
  -INDIGO-08031722522D

 52 53  0  0  0  0  0  0  0  0999 V2000
   -3.9969   -1.0285    0.0000 O   0  0  0  0  0  0  0  0  0  0  0  0
   -4.2747    0.5472    0.0000 P   0  0  0  0  0  0  0  0  0  0  0  0
   -3.0491    1.5757    0.0000 O   0  0  0  0  0  0  0  0  0  0  0  0
   -3.3269    3.1514    0.0000 C   0  0  0  0  0  0  0  0  0  0  0  0
   -2.1013    4.1799    0.0000 C   0  0  0  0  0  0  0  0  0  0  0  0
   -0.5977    3.6327    0.0000 H   0  0  0  0  0  0  0  0  0  0  0  0
   -2.3791    5.7555    0.0000 C   0  0  0  0  0  0  0  0  0  0  0  0
   -1.1535    6.7840    0.0000 H   0  0  0  0  0  0  0  0  0  0  0  0
   -3.8826    6.3027    0.0000 C   0  0  0  0  0  0  0  0  0  0  0  0
   -4.1604    7.8785    0.0000 H   0  0  0  0  0  0  0  0  0  0  0  0
   -5.1082    5.2742    0.0000 C   0  0  0  0  0  0  0  0  0  0  0  0
   -6.6118    5.8215    0.0000 H   0  0  0  0  0  0  0  0  0  0  0  0
   -4.8304    3.6987    0.0000 C   0  0  0  0  0  0  0  0  0  0  0  0
   -6.0563    2.6702    0.0000 H   0  0  0  0  0  0  0  0  0  0  0  0
   -5.5005   -0.4813    0.0000 O   0  0  0  0  0  0  0  0  0  0  0  0
   -7.1005   -0.4813    0.0000 C   0  0  0  0  0  0  0  0  0  0  0  0
   -7.9003    0.9044    0.0000 C   0  0  0  0  0  0  0  0  0  0  0  0
   -7.1005    2.2900    0.0000 H   0  0  0  0  0  0  0  0  0  0  0  0
   -9.5003    0.9044    0.0000 C   0  0  0  0  0  0  0  0  0  0  0  0
  -10.3005    2.2900    0.0000 H   0  0  0  0  0  0  0  0  0  0  0  0
  -10.3005   -0.4813    0.0000 C   0  0  0  0  0  0  0  0  0  0  0  0
  -11.9005   -0.4813    0.0000 H   0  0  0  0  0  0  0  0  0  0  0  0
   -9.5003   -1.8669    0.0000 C   0  0  0  0  0  0  0  0  0  0  0  0
  -10.3005   -3.2524    0.0000 H   0  0  0  0  0  0  0  0  0  0  0  0
   -7.9003   -1.8669    0.0000 C   0  0  0  0  0  0  0  0  0  0  0  0
   -7.1005   -3.2524    0.0000 H   0  0  0  0  0  0  0  0  0  0  0  0
   -2.7714   -0.0001    0.0000 O   0  0  0  0  0  0  0  0  0  0  0  0
   -1.3855    0.8000    0.0000 C   0  0  0  0  0  0  0  0  0  0  0  0
   -1.9980    2.2782    0.0000 H   0  0  0  0  0  0  0  0  0  0  0  0
   -0.7733    2.2782    0.0000 H   0  0  0  0  0  0  0  0  0  0  0  0
    0.0001   -0.0001    0.0000 C   0  0  0  0  0  0  0  0  0  0  0  0
    0.5472    1.5035    0.0000 H   0  0  0  0  0  0  0  0  0  0  0  0
   -0.5474   -1.5035    0.0000 C   0  0  0  0  0  0  0  0  0  0  0  0
   -1.8967   -2.3632    0.0000 H   0  0  0  0  0  0  0  0  0  0  0  0
   -2.1094   -1.1572    0.0000 H   0  0  0  0  0  0  0  0  0  0  0  0
    0.2528   -2.8891    0.0000 C   0  0  0  0  0  0  0  0  0  0  0  0
    1.0529   -4.2748    0.0000 H   0  0  0  0  0  0  0  0  0  0  0  0
   -0.5474   -4.2748    0.0000 H   0  0  0  0  0  0  0  0  0  0  0  0
    1.8528   -2.8891    0.0000 H   0  0  0  0  0  0  0  0  0  0  0  0
    1.5036   -0.5473    0.0000 C   0  0  0  0  0  0  0  0  0  0  0  0
    2.3631   -1.8966    0.0000 H   0  0  0  0  0  0  0  0  0  0  0  0
    1.1571   -2.1093    0.0000 H   0  0  0  0  0  0  0  0  0  0  0  0
    2.7292    0.4812    0.0000 C   0  0  0  0  0  0  0  0  0  0  0  0
    1.8695    1.8307    0.0000 H   0  0  0  0  0  0  0  0  0  0  0  0
    3.0754    2.0434    0.0000 H   0  0  0  0  0  0  0  0  0  0  0  0
    4.2328   -0.0661    0.0000 C   0  0  0  0  0  0  0  0  0  0  0  0
    5.0925   -1.4154    0.0000 H   0  0  0  0  0  0  0  0  0  0  0  0
    3.8865   -1.6281    0.0000 H   0  0  0  0  0  0  0  0  0  0  0  0
    5.4583    0.9624    0.0000 C   0  0  0  0  0  0  0  0  0  0  0  0
    6.6841    1.9909    0.0000 H   0  0  0  0  0  0  0  0  0  0  0  0
    6.9619    0.4152    0.0000 H   0  0  0  0  0  0  0  0  0  0  0  0
    5.1805    2.5382    0.0000 H   0  0  0  0  0  0  0  0  0  0  0  0
  1  2  2  0  0  0  0
  2  3  1  0  0  0  0
  3  4  1  0  0  0  0
  4  5  1  0  0  0  0
  5  6  1  0  0  0  0
  5  7  2  0  0  0  0
  7  8  1  0  0  0  0
  7  9  1  0  0  0  0
  9 10  1  0  0  0  0
  9 11  2  0  0  0  0
 11 12  1  0  0  0  0
 11 13  1  0  0  0  0
 13  4  2  0  0  0  0
 13 14  1  0  0  0  0
  2 15  1  0  0  0  0
 15 16  1  0  0  0  0
 16 17  1  0  0  0  0
 17 18  1  0  0  0  0
 17 19  2  0  0  0  0
 19 20  1  0  0  0  0
 19 21  1  0  0  0  0
 21 22  1  0  0  0  0
 21 23  2  0  0  0  0
 23 24  1  0  0  0  0
 23 25  1  0  0  0  0
 25 16  2  0  0  0  0
 25 26  1  0  0  0  0
  2 27  1  0  0  0  0
 27 28  1  0  0  0  0
 28 29  1  0  0  0  0
 28 30  1  0  0  0  0
 28 31  1  0  0  0  0
 31 32  1  0  0  0  0
 31 33  1  0  0  0  0
 33 34  1  0  0  0  0
 33 35  1  0  0  0  0
 33 36  1  0  0  0  0
 36 37  1  0  0  0  0
 36 38  1  0  0  0  0
 36 39  1  0  0  0  0
 31 40  1  0  0  0  0
 40 41  1  0  0  0  0
 40 42  1  0  0  0  0
 40 43  1  0  0  0  0
 43 44  1  0  0  0  0
 43 45  1  0  0  0  0
 43 46  1  0  0  0  0
 46 47  1  0  0  0  0
 46 48  1  0  0  0  0
 46 49  1  0  0  0  0
 49 50  1  0  0  0  0
 49 51  1  0  0  0  0
 49 52  1  0  0  0  0
M  END
> <ChemID>
100963

> <source_casrn>
1241-94-7

> <CAS>
1241-94-7

> <SMILES>
O=P(Oc1ccccc1)(Oc2ccccc2)OCC(CC)CCCC

> <NAME>
O=P(O-phenyl)2 O-EtHexyl

> <preferred_name>
2-Ethylhexyl diphenyl phosphate

> <iupac>
2-ethylhexyl diphenyl phosphate

> <MPID>
100960

> <dsstox_substance_id>
DTXSID1025300

> <Canonical_QSARr>
CCC(COP(=O)(Oc1ccccc1)Oc1ccccc1)CCCC

> <InChI_Code_QSARr>
InChI=1S/C20H27O4P/c1-3-5-12-18(4-2)17-22-25(21,23-19-13-8-6-9-14-19)24-20-15-10-7-11-16-20/h6-11,13-16,18H,3-5,12,17H2,1-2H3

> <InChI Key_QSARr>
CGSLYBDCEGBZCG-UHFFFAOYSA-N

> <Salt_Solvent>
?

> <Ready_Biodeg>
0.0

$$$$
100970
  -INDIGO-08031722522D

 48 48  0  0  0  0  0  0  0  0999 V2000
    0.0000    0.0000    0.0000 C   0  0  0  0  0  0  0  0  0  0  0  0
    1.3856   -0.8001    0.0000 C   0  0  0  0  0  0  0  0  0  0  0  0
    2.7714    0.0000    0.0000 C   0  0  0  0  0  0  0  0  0  0  0  0
    2.7714    1.5999    0.0000 H   0  0  0  0  0  0  0  0  0  0  0  0
    4.1570   -0.8001    0.0000 C   0  0  0  0  0  0  0  0  0  0  0  0
    5.5425    0.0000    0.0000 C   0  0  0  0  0  0  0  0  0  0  0  0
    6.9281    0.8000    0.0000 C   0  0  0  0  0  0  0  0  0  0  0  0
    8.3139    1.5999    0.0000 H   0  0  0  0  0  0  0  0  0  0  0  0
    8.4317    0.2527    0.0000 H   0  0  0  0  0  0  0  0  0  0  0  0
    7.2061    2.3757    0.0000 H   0  0  0  0  0  0  0  0  0  0  0  0
    4.7426    1.3856    0.0000 C   0  0  0  0  0  0  0  0  0  0  0  0
    3.7140    2.6113    0.0000 H   0  0  0  0  0  0  0  0  0  0  0  0
    5.2898    2.8891    0.0000 H   0  0  0  0  0  0  0  0  0  0  0  0
    6.3182    1.6634    0.0000 H   0  0  0  0  0  0  0  0  0  0  0  0
    6.3425   -1.3856    0.0000 C   0  0  0  0  0  0  0  0  0  0  0  0
    6.8898   -2.8892    0.0000 H   0  0  0  0  0  0  0  0  0  0  0  0
    7.9183   -1.6634    0.0000 H   0  0  0  0  0  0  0  0  0  0  0  0
    7.3711   -0.1600    0.0000 H   0  0  0  0  0  0  0  0  0  0  0  0
    4.1570   -2.4000    0.0000 C   0  0  0  0  0  0  0  0  0  0  0  0
    5.5425   -3.2000    0.0000 H   0  0  0  0  0  0  0  0  0  0  0  0
    2.7714   -3.2000    0.0000 C   0  0  0  0  0  0  0  0  0  0  0  0
    2.7714   -4.8000    0.0000 C   0  0  0  0  0  0  0  0  0  0  0  0
    2.7714   -6.4001    0.0000 C   0  0  0  0  0  0  0  0  0  0  0  0
    2.7714   -8.0000    0.0000 H   0  0  0  0  0  0  0  0  0  0  0  0
    1.5456   -7.4284    0.0000 H   0  0  0  0  0  0  0  0  0  0  0  0
    3.9970   -7.4284    0.0000 H   0  0  0  0  0  0  0  0  0  0  0  0
    1.1712   -4.8000    0.0000 C   0  0  0  0  0  0  0  0  0  0  0  0
   -0.4044   -4.5222    0.0000 H   0  0  0  0  0  0  0  0  0  0  0  0
    0.1429   -6.0257    0.0000 H   0  0  0  0  0  0  0  0  0  0  0  0
    1.7185   -6.3035    0.0000 H   0  0  0  0  0  0  0  0  0  0  0  0
    4.3713   -4.8000    0.0000 C   0  0  0  0  0  0  0  0  0  0  0  0
    5.9469   -4.5222    0.0000 H   0  0  0  0  0  0  0  0  0  0  0  0
    5.3997   -6.0257    0.0000 H   0  0  0  0  0  0  0  0  0  0  0  0
    3.8241   -6.3035    0.0000 H   0  0  0  0  0  0  0  0  0  0  0  0
    1.3856   -2.4000    0.0000 C   0  0  0  0  0  0  0  0  0  0  0  0
    0.0000   -3.2000    0.0000 H   0  0  0  0  0  0  0  0  0  0  0  0
   -1.3856    0.8000    0.0000 C   0  0  0  0  0  0  0  0  0  0  0  0
   -2.7713    1.5999    0.0000 H   0  0  0  0  0  0  0  0  0  0  0  0
   -2.8891    0.2527    0.0000 H   0  0  0  0  0  0  0  0  0  0  0  0
   -1.6635    2.3757    0.0000 H   0  0  0  0  0  0  0  0  0  0  0  0
    0.8000    1.3856    0.0000 C   0  0  0  0  0  0  0  0  0  0  0  0
    0.2527    2.8891    0.0000 H   0  0  0  0  0  0  0  0  0  0  0  0
    1.8285    2.6113    0.0000 H   0  0  0  0  0  0  0  0  0  0  0  0
   -0.7756    1.6634    0.0000 H   0  0  0  0  0  0  0  0  0  0  0  0
   -0.8000   -1.3856    0.0000 C   0  0  0  0  0  0  0  0  0  0  0  0
   -1.3472   -2.8892    0.0000 H   0  0  0  0  0  0  0  0  0  0  0  0
   -2.3757   -1.6634    0.0000 H   0  0  0  0  0  0  0  0  0  0  0  0
   -1.8285   -0.1600    0.0000 H   0  0  0  0  0  0  0  0  0  0  0  0
  1  2  1  0  0  0  0
  2  3  1  0  0  0  0
  3  4  1  0  0  0  0
  3  5  2  0  0  0  0
  5  6  1  0  0  0  0
  6  7  1  0  0  0  0
  7  8  1  0  0  0  0
  7  9  1  0  0  0  0
  7 10  1  0  0  0  0
  6 11  1  0  0  0  0
 11 12  1  0  0  0  0
 11 13  1  0  0  0  0
 11 14  1  0  0  0  0
  6 15  1  0  0  0  0
 15 16  1  0  0  0  0
 15 17  1  0  0  0  0
 15 18  1  0  0  0  0
  5 19  1  0  0  0  0
 19 20  1  0  0  0  0
 19 21  2  0  0  0  0
 21 22  1  0  0  0  0
 22 23  1  0  0  0  0
 23 24  1  0  0  0  0
 23 25  1  0  0  0  0
 23 26  1  0  0  0  0
 22 27  1  0  0  0  0
 27 28  1  0  0  0  0
 27 29  1  0  0  0  0
 27 30  1  0  0  0  0
 22 31  1  0  0  0  0
 31 32  1  0  0  0  0
 31 33  1  0  0  0  0
 31 34  1  0  0  0  0
 21 35  1  0  0  0  0
 35  2  2  0  0  0  0
 35 36  1  0  0  0  0
  1 37  1  0  0  0  0
 37 38  1  0  0  0  0
 37 39  1  0  0  0  0
 37 40  1  0  0  0  0
  1 41  1  0  0  0  0
 41 42  1  0  0  0  0
 41 43  1  0  0  0  0
 41 44  1  0  0  0  0
  1 45  1  0  0  0  0
 45 46  1  0  0  0  0
 45 47  1  0  0  0  0
 45 48  1  0  0  0  0
M  END
> <ChemID>
100970

> <source_casrn>
1460-02-2

> <CAS>
1460-02-2

> <SMILES>
CC(C)(C)c1cc(cc(c1)C(C)(C)C)C(C)(C)C

> <NAME>
BENZENE, 1,3,5-TRIS(1,1-DIMETHYLETHYL)-

> <preferred_name>
1,3,5-Tri-tert-butylbenzene

> <iupac>
1,3,5-tritert-butylbenzene

> <MPID>
100964

> <dsstox_substance_id>
DTXSID50163255

> <Canonical_QSARr>
CC(C)(C)c1cc(cc(c1)C(C)(C)C)C(C)(C)C

> <InChI_Code_QSARr>
InChI=1S/C18H30/c1-16(2,3)13-10-14(17(4,5)6)12-15(11-13)18(7,8)9/h10-12H,1-9H3

> <InChI Key_QSARr>
GUFMBISUSZUUCB-UHFFFAOYSA-N

> <Salt_Solvent>
?

> <Ready_Biodeg>
0.0

$$$$
100975
  -INDIGO-08031722522D

 42 41  0  0  0  0  0  0  0  0999 V2000
   -4.1569    0.8000    0.0000 C   0  0  0  0  0  0  0  0  0  0  0  0
   -3.5445    2.2782    0.0000 H   0  0  0  0  0  0  0  0  0  0  0  0
   -4.7693    2.2782    0.0000 H   0  0  0  0  0  0  0  0  0  0  0  0
   -2.7713   -0.0000    0.0000 C   0  0  0  0  0  0  0  0  0  0  0  0
   -3.3837   -1.4782    0.0000 H   0  0  0  0  0  0  0  0  0  0  0  0
   -2.1589   -1.4782    0.0000 H   0  0  0  0  0  0  0  0  0  0  0  0
   -1.3856    0.8000    0.0000 C   0  0  0  0  0  0  0  0  0  0  0  0
   -0.7732    2.2782    0.0000 H   0  0  0  0  0  0  0  0  0  0  0  0
   -1.9981    2.2782    0.0000 H   0  0  0  0  0  0  0  0  0  0  0  0
    0.0000   -0.0000    0.0000 C   0  0  0  0  0  0  0  0  0  0  0  0
   -0.6124   -1.4782    0.0000 H   0  0  0  0  0  0  0  0  0  0  0  0
    0.6124   -1.4782    0.0000 H   0  0  0  0  0  0  0  0  0  0  0  0
    1.3856    0.8000    0.0000 C   0  0  0  0  0  0  0  0  0  0  0  0
    1.9981    2.2782    0.0000 H   0  0  0  0  0  0  0  0  0  0  0  0
    0.7732    2.2782    0.0000 H   0  0  0  0  0  0  0  0  0  0  0  0
    2.7713   -0.0000    0.0000 C   0  0  0  0  0  0  0  0  0  0  0  0
    2.1589   -1.4782    0.0000 H   0  0  0  0  0  0  0  0  0  0  0  0
    3.3837   -1.4782    0.0000 H   0  0  0  0  0  0  0  0  0  0  0  0
    4.1569    0.8000    0.0000 C   0  0  0  0  0  0  0  0  0  0  0  0
    4.7693    2.2782    0.0000 H   0  0  0  0  0  0  0  0  0  0  0  0
    3.5445    2.2782    0.0000 H   0  0  0  0  0  0  0  0  0  0  0  0
    5.5426   -0.0000    0.0000 C   0  0  0  0  0  0  0  0  0  0  0  0
    4.9301   -1.4782    0.0000 H   0  0  0  0  0  0  0  0  0  0  0  0
    6.1550   -1.4782    0.0000 H   0  0  0  0  0  0  0  0  0  0  0  0
    6.9282    0.8000    0.0000 C   0  0  0  0  0  0  0  0  0  0  0  0
    7.5406    2.2782    0.0000 H   0  0  0  0  0  0  0  0  0  0  0  0
    6.3158    2.2782    0.0000 H   0  0  0  0  0  0  0  0  0  0  0  0
    8.3138   -0.0000    0.0000 C   0  0  0  0  0  0  0  0  0  0  0  0
    9.6995   -0.8000    0.0000 H   0  0  0  0  0  0  0  0  0  0  0  0
    9.6995    0.8000    0.0000 H   0  0  0  0  0  0  0  0  0  0  0  0
    8.3138   -1.6000    0.0000 H   0  0  0  0  0  0  0  0  0  0  0  0
   -5.5426   -0.0000    0.0000 C   0  0  0  0  0  0  0  0  0  0  0  0
   -6.1550   -1.4782    0.0000 H   0  0  0  0  0  0  0  0  0  0  0  0
   -4.9301   -1.4782    0.0000 H   0  0  0  0  0  0  0  0  0  0  0  0
   -6.9282    0.8000    0.0000 C   0  0  0  0  0  0  0  0  0  0  0  0
   -6.3158    2.2782    0.0000 H   0  0  0  0  0  0  0  0  0  0  0  0
   -7.5406    2.2782    0.0000 H   0  0  0  0  0  0  0  0  0  0  0  0
   -8.3138   -0.0000    0.0000 S   0  0  0  0  0  0  0  0  0  0  0  0
   -9.6995   -0.8000    0.0000 O   0  0  0  0  0  0  0  0  0  0  0  0
  -11.0851   -0.0000    0.0000 H   0  0  0  0  0  0  0  0  0  0  0  0
   -9.1137    1.3856    0.0000 O   0  0  0  0  0  0  0  0  0  0  0  0
   -7.5140   -1.3857    0.0000 O   0  0  0  0  0  0  0  0  0  0  0  0
  1  2  1  0  0  0  0
  1  3  1  0  0  0  0
  1  4  1  0  0  0  0
  4  5  1  0  0  0  0
  4  6  1  0  0  0  0
  4  7  1  0  0  0  0
  7  8  1  0  0  0  0
  7  9  1  0  0  0  0
  7 10  1  0  0  0  0
 10 11  1  0  0  0  0
 10 12  1  0  0  0  0
 10 13  1  0  0  0  0
 13 14  1  0  0  0  0
 13 15  1  0  0  0  0
 13 16  1  0  0  0  0
 16 17  1  0  0  0  0
 16 18  1  0  0  0  0
 16 19  1  0  0  0  0
 19 20  1  0  0  0  0
 19 21  1  0  0  0  0
 19 22  1  0  0  0  0
 22 23  1  0  0  0  0
 22 24  1  0  0  0  0
 22 25  1  0  0  0  0
 25 26  1  0  0  0  0
 25 27  1  0  0  0  0
 25 28  1  0  0  0  0
 28 29  1  0  0  0  0
 28 30  1  0  0  0  0
 28 31  1  0  0  0  0
  1 32  1  0  0  0  0
 32 33  1  0  0  0  0
 32 34  1  0  0  0  0
 32 35  1  0  0  0  0
 35 36  1  0  0  0  0
 35 37  1  0  0  0  0
 35 38  1  0  0  0  0
 38 39  1  0  0  0  0
 39 40  1  0  0  0  0
 38 41  2  0  0  0  0
 38 42  2  0  0  0  0
M  END
> <ChemID>
100975

> <source_casrn>
1510-16-3

> <CAS>
1510-16-3

> <SMILES>
CCCCCCCCCCCCS(O)(=O)=O

> <NAME>
Dodecylsulfonic acid

> <preferred_name>
1-Dodecanesulfonic acid

> <iupac>
dodecane-1-sulfonic acid

> <MPID>
100968

> <dsstox_substance_id>
DTXSID3073262

> <Canonical_QSARr>
CCCCCCCCCCCCS(O)(=O)=O

> <InChI_Code_QSARr>
InChI=1S/C12H26O3S/c1-2-3-4-5-6-7-8-9-10-11-12-16(13,14)15/h2-12H2,1H3,(H,13,14,15)

> <InChI Key_QSARr>
LDMOEFOXLIZJOW-UHFFFAOYSA-N

> <Salt_Solvent>
?

> <Ready_Biodeg>
1.0

$$$$
100979
  -INDIGO-08031722522D

 18 17  0  0  0  0  0  0  0  0999 V2000
    1.3856   -0.8000    0.0000 C   0  0  0  0  0  0  0  0  0  0  0  0
    2.7713   -1.6000    0.0000 H   0  0  0  0  0  0  0  0  0  0  0  0
    2.7713    0.0000    0.0000 H   0  0  0  0  0  0  0  0  0  0  0  0
    1.3856   -2.4000    0.0000 H   0  0  0  0  0  0  0  0  0  0  0  0
    0.0001    0.0000    0.0000 C   0  0  0  0  0  0  0  0  0  0  0  0
    0.8000    1.3856    0.0000 O   0  0  0  0  0  0  0  0  0  0  0  0
    2.4000    1.3856    0.0000 C   0  0  0  0  0  0  0  0  0  0  0  0
    3.2000    2.7713    0.0000 H   0  0  0  0  0  0  0  0  0  0  0  0
    4.0000    1.3856    0.0000 H   0  0  0  0  0  0  0  0  0  0  0  0
    1.6000    2.7713    0.0000 H   0  0  0  0  0  0  0  0  0  0  0  0
   -1.3856    0.8000    0.0000 C   0  0  0  0  0  0  0  0  0  0  0  0
   -2.7713    1.6000    0.0000 H   0  0  0  0  0  0  0  0  0  0  0  0
   -1.3856    2.4000    0.0000 H   0  0  0  0  0  0  0  0  0  0  0  0
   -2.7713    0.0000    0.0000 H   0  0  0  0  0  0  0  0  0  0  0  0
   -0.8000   -1.3856    0.0000 C   0  0  0  0  0  0  0  0  0  0  0  0
   -1.6000   -2.7713    0.0000 H   0  0  0  0  0  0  0  0  0  0  0  0
   -0.0001   -2.7713    0.0000 H   0  0  0  0  0  0  0  0  0  0  0  0
   -2.4000   -1.3856    0.0000 H   0  0  0  0  0  0  0  0  0  0  0  0
  1  2  1  0  0  0  0
  1  3  1  0  0  0  0
  1  4  1  0  0  0  0
  1  5  1  0  0  0  0
  5  6  1  0  0  0  0
  6  7  1  0  0  0  0
  7  8  1  0  0  0  0
  7  9  1  0  0  0  0
  7 10  1  0  0  0  0
  5 11  1  0  0  0  0
 11 12  1  0  0  0  0
 11 13  1  0  0  0  0
 11 14  1  0  0  0  0
  5 15  1  0  0  0  0
 15 16  1  0  0  0  0
 15 17  1  0  0  0  0
 15 18  1  0  0  0  0
M  END
> <ChemID>
100979

> <source_casrn>
1634-04-4

> <CAS>
1634-04-4

> <SMILES>
COC(C)(C)C

> <NAME>
Propane, 2-methoxy-2-methyl-

> <preferred_name>
Methyl tert-butyl ether

> <iupac>
tert-butyl methyl ether

> <MPID>
100972

> <dsstox_substance_id>
DTXSID3020833

> <Canonical_QSARr>
COC(C)(C)C

> <InChI_Code_QSARr>
InChI=1S/C5H12O/c1-5(2,3)6-4/h1-4H3

> <InChI Key_QSARr>
BZLVMXJERCGZMT-UHFFFAOYSA-N

> <Salt_Solvent>
?

> <Ready_Biodeg>
0.0

$$$$
100983
  -INDIGO-08031722522D

 14 14  0  0  0  0  0  0  0  0999 V2000
   -0.8000    1.3856    0.0000 C   0  0  0  0  0  0  0  0  0  0  0  0
   -0.0000    2.7713    0.0000 H   0  0  0  0  0  0  0  0  0  0  0  0
   -2.4000    1.3856    0.0000 C   0  0  0  0  0  0  0  0  0  0  0  0
   -3.2000    2.7713    0.0000 I   0  0  0  0  0  0  0  0  0  0  0  0
   -3.2000   -0.0000    0.0000 C   0  0  0  0  0  0  0  0  0  0  0  0
   -4.8000    0.0000    0.0000 O   0  0  0  0  0  0  0  0  0  0  0  0
   -5.6000   -1.3856    0.0000 H   0  0  0  0  0  0  0  0  0  0  0  0
   -2.4000   -1.3856    0.0000 C   0  0  0  0  0  0  0  0  0  0  0  0
   -3.2000   -2.7713    0.0000 I   0  0  0  0  0  0  0  0  0  0  0  0
   -0.8000   -1.3856    0.0000 C   0  0  0  0  0  0  0  0  0  0  0  0
   -0.0000   -2.7713    0.0000 H   0  0  0  0  0  0  0  0  0  0  0  0
   -0.0000   -0.0000    0.0000 C   0  0  0  0  0  0  0  0  0  0  0  0
    1.6001    0.0000    0.0000 C   0  0  0  0  0  0  0  0  0  0  0  0
    3.2000    0.0000    0.0000 N   0  0  0  0  0  0  0  0  0  0  0  0
  1  2  1  0  0  0  0
  1  3  1  0  0  0  0
  3  4  1  0  0  0  0
  3  5  2  0  0  0  0
  5  6  1  0  0  0  0
  6  7  1  0  0  0  0
  5  8  1  0  0  0  0
  8  9  1  0  0  0  0
  8 10  2  0  0  0  0
 10 11  1  0  0  0  0
 10 12  1  0  0  0  0
 12  1  2  0  0  0  0
 12 13  1  0  0  0  0
 13 14  3  0  0  0  0
M  END
> <ChemID>
100983

> <source_casrn>
1689-83-4

> <CAS>
1689-83-4

> <SMILES>
N#Cc1cc(I)c(O)c(I)c1

> <NAME>
Ioxynil

> <preferred_name>
Ioxynil

> <iupac>
4-hydroxy-3,5-diiodobenzonitrile

> <MPID>
100976

> <dsstox_substance_id>
DTXSID8022161

> <Canonical_QSARr>
N#Cc1cc(I)c(O)c(I)c1

> <InChI_Code_QSARr>
InChI=1S/C7H3I2NO/c8-5-1-4(3-10)2-6(9)7(5)11/h1-2,11H

> <InChI Key_QSARr>
NRXQIUSYPAHGNM-UHFFFAOYSA-N

> <Salt_Solvent>
?

> <Ready_Biodeg>
0.0

$$$$
100987
  -INDIGO-08031722522D

 22 24  0  0  0  0  0  0  0  0999 V2000
   -4.1569   -2.4000    0.0000 Cl  0  0  0  0  0  0  0  0  0  0  0  0
   -2.7713   -1.6000    0.0000 C   0  0  0  0  0  0  0  0  0  0  0  0
   -1.3856   -2.4000    0.0000 C   0  0  0  0  0  0  0  0  0  0  0  0
   -1.3856   -4.0000    0.0000 H   0  0  0  0  0  0  0  0  0  0  0  0
    0.0001   -1.6000    0.0000 C   0  0  0  0  0  0  0  0  0  0  0  0
    0.0001   -0.0000    0.0000 C   0  0  0  0  0  0  0  0  0  0  0  0
    1.3857    0.8000    0.0000 O   0  0  0  0  0  0  0  0  0  0  0  0
    2.7712   -0.0000    0.0000 C   0  0  0  0  0  0  0  0  0  0  0  0
    2.7712   -1.6000    0.0000 C   0  0  0  0  0  0  0  0  0  0  0  0
    1.3857   -2.4000    0.0000 O   0  0  0  0  0  0  0  0  0  0  0  0
    4.1569   -2.4000    0.0000 C   0  0  0  0  0  0  0  0  0  0  0  0
    4.1569   -4.0000    0.0000 H   0  0  0  0  0  0  0  0  0  0  0  0
    5.5425   -1.6000    0.0000 C   0  0  0  0  0  0  0  0  0  0  0  0
    6.9282   -2.4000    0.0000 Cl  0  0  0  0  0  0  0  0  0  0  0  0
    5.5425   -0.0000    0.0000 C   0  0  0  0  0  0  0  0  0  0  0  0
    6.9282    0.8000    0.0000 Cl  0  0  0  0  0  0  0  0  0  0  0  0
    4.1569    0.8000    0.0000 C   0  0  0  0  0  0  0  0  0  0  0  0
    4.1569    2.4000    0.0000 H   0  0  0  0  0  0  0  0  0  0  0  0
   -1.3856    0.8000    0.0000 C   0  0  0  0  0  0  0  0  0  0  0  0
   -1.3856    2.4000    0.0000 H   0  0  0  0  0  0  0  0  0  0  0  0
   -2.7713   -0.0000    0.0000 C   0  0  0  0  0  0  0  0  0  0  0  0
   -4.1569    0.8000    0.0000 Cl  0  0  0  0  0  0  0  0  0  0  0  0
  1  2  1  0  0  0  0
  2  3  1  0  0  0  0
  3  4  1  0  0  0  0
  3  5  2  0  0  0  0
  5  6  1  0  0  0  0
  6  7  1  0  0  0  0
  7  8  1  0  0  0  0
  8  9  1  0  0  0  0
  9 10  1  0  0  0  0
 10  5  1  0  0  0  0
  9 11  2  0  0  0  0
 11 12  1  0  0  0  0
 11 13  1  0  0  0  0
 13 14  1  0  0  0  0
 13 15  2  0  0  0  0
 15 16  1  0  0  0  0
 15 17  1  0  0  0  0
 17  8  2  0  0  0  0
 17 18  1  0  0  0  0
  6 19  2  0  0  0  0
 19 20  1  0  0  0  0
 19 21  1  0  0  0  0
 21  2  2  0  0  0  0
 21 22  1  0  0  0  0
M  END
> <ChemID>
100987

> <source_casrn>
1746-01-6

> <CAS>
1746-01-6

> <SMILES>
Clc1cc2Oc3cc(Cl)c(Cl)cc3Oc2cc1Cl

> <NAME>
2,3,7,8-TETRACHLORODIBENZO-P-DIOXIN

> <preferred_name>
2,3,7,8-Tetrachlorodibenzo-p-dioxin

> <iupac>
2,3,7,8-tetrachlorooxanthrene

> <MPID>
100980

> <dsstox_substance_id>
DTXSID2021315

> <Canonical_QSARr>
Clc1cc2Oc3cc(Cl)c(Cl)cc3Oc2cc1Cl

> <InChI_Code_QSARr>
InChI=1S/C12H4Cl4O2/c13-5-1-9-10(2-6(5)14)18-12-4-8(16)7(15)3-11(12)17-9/h1-4H

> <InChI Key_QSARr>
HGUFODBRKLSHSI-UHFFFAOYSA-N

> <Salt_Solvent>
?

> <Ready_Biodeg>
0.0

$$$$
100992
  -INDIGO-08031722522D

 25 26  0  0  0  0  0  0  0  0999 V2000
   -3.4426   -3.2513    0.0000 Cl  0  0  0  0  0  0  0  0  0  0  0  0
   -3.9898   -1.7479    0.0000 C   0  0  0  0  0  0  0  0  0  0  0  0
   -2.9613   -0.5222    0.0000 C   0  0  0  0  0  0  0  0  0  0  0  0
   -1.3856   -0.8000    0.0000 O   0  0  0  0  0  0  0  0  0  0  0  0
    0.0000   -0.0001    0.0000 C   0  0  0  0  0  0  0  0  0  0  0  0
    0.0000    1.6000    0.0000 C   0  0  0  0  0  0  0  0  0  0  0  0
   -1.3856    2.4000    0.0000 H   0  0  0  0  0  0  0  0  0  0  0  0
    1.3856    2.4000    0.0000 C   0  0  0  0  0  0  0  0  0  0  0  0
    1.3856    4.0000    0.0000 H   0  0  0  0  0  0  0  0  0  0  0  0
    2.7712    1.6000    0.0000 C   0  0  0  0  0  0  0  0  0  0  0  0
    4.1570    2.4000    0.0000 N   0  0  0  0  0  0  0  0  0  0  0  0
    5.5426    1.6000    0.0000 O   0  0  0  0  0  0  0  0  0  0  0  0
    4.1570    4.0000    0.0000 O   0  0  0  0  0  0  0  0  0  0  0  0
    2.7712   -0.0001    0.0000 C   0  0  0  0  0  0  0  0  0  0  0  0
    4.1570   -0.8000    0.0000 H   0  0  0  0  0  0  0  0  0  0  0  0
    1.3856   -0.8000    0.0000 C   0  0  0  0  0  0  0  0  0  0  0  0
    1.3856   -2.4000    0.0000 H   0  0  0  0  0  0  0  0  0  0  0  0
   -3.5086    0.9813    0.0000 C   0  0  0  0  0  0  0  0  0  0  0  0
   -2.4800    2.2071    0.0000 H   0  0  0  0  0  0  0  0  0  0  0  0
   -5.0842    1.2591    0.0000 C   0  0  0  0  0  0  0  0  0  0  0  0
   -5.6315    2.7627    0.0000 H   0  0  0  0  0  0  0  0  0  0  0  0
   -6.1126    0.0335    0.0000 C   0  0  0  0  0  0  0  0  0  0  0  0
   -7.6884    0.3113    0.0000 Cl  0  0  0  0  0  0  0  0  0  0  0  0
   -5.5655   -1.4700    0.0000 C   0  0  0  0  0  0  0  0  0  0  0  0
   -6.5940   -2.6957    0.0000 H   0  0  0  0  0  0  0  0  0  0  0  0
  1  2  1  0  0  0  0
  2  3  1  0  0  0  0
  3  4  1  0  0  0  0
  4  5  1  0  0  0  0
  5  6  1  0  0  0  0
  6  7  1  0  0  0  0
  6  8  2  0  0  0  0
  8  9  1  0  0  0  0
  8 10  1  0  0  0  0
 10 11  1  0  0  0  0
 11 12  2  0  0  0  0
 11 13  1  0  0  0  0
 10 14  2  0  0  0  0
 14 15  1  0  0  0  0
 14 16  1  0  0  0  0
 16  5  2  0  0  0  0
 16 17  1  0  0  0  0
  3 18  2  0  0  0  0
 18 19  1  0  0  0  0
 18 20  1  0  0  0  0
 20 21  1  0  0  0  0
 20 22  2  0  0  0  0
 22 23  1  0  0  0  0
 22 24  1  0  0  0  0
 24  2  2  0  0  0  0
 24 25  1  0  0  0  0
M  CHG  2  11   1  13  -1
M  END
> <ChemID>
100992

> <source_casrn>
1836-75-5

> <CAS>
1836-75-5

> <SMILES>
[O-][N+](=O)c1ccc(cc1)Oc1ccc(Cl)cc1Cl

> <NAME>
2,4-DICHLORO-1-(4-NITROPHENOXY)BENZENE

> <preferred_name>
Nitrofen

> <iupac>
2,4-dichloro-1-(4-nitrophenoxy)benzene

> <MPID>
100984

> <dsstox_substance_id>
DTXSID7020970

> <Canonical_QSARr>
[O-][N+](=O)c1ccc(cc1)Oc1ccc(Cl)cc1Cl

> <InChI_Code_QSARr>
InChI=1S/C12H7Cl2NO3/c13-8-1-6-12(11(14)7-8)18-10-4-2-9(3-5-10)15(16)17/h1-7H

> <InChI Key_QSARr>
XITQUSLLOSKDTB-UHFFFAOYSA-N

> <Salt_Solvent>
?

> <Ready_Biodeg>
0.0

$$$$
100996
  -INDIGO-08031722522D

 39 39  0  0  0  0  0  0  0  0999 V2000
    2.4000    1.3857    0.0000 C   0  0  0  0  0  0  0  0  0  0  0  0
    2.1222    2.9614    0.0000 N   0  0  0  0  0  0  0  0  0  0  0  0
    3.3479    3.9898    0.0000 O   0  0  0  0  0  0  0  0  0  0  0  0
    0.6186    3.5086    0.0000 O   0  0  0  0  0  0  0  0  0  0  0  0
    1.5999   -0.0000    0.0000 C   0  0  0  0  0  0  0  0  0  0  0  0
    0.0001   -0.0000    0.0000 N   0  0  0  0  0  0  0  0  0  0  0  0
   -0.8000    1.3857    0.0000 C   0  0  0  0  0  0  0  0  0  0  0  0
    0.4694    2.3597    0.0000 H   0  0  0  0  0  0  0  0  0  0  0  0
   -0.5912    2.9720    0.0000 H   0  0  0  0  0  0  0  0  0  0  0  0
   -2.3036    1.9328    0.0000 C   0  0  0  0  0  0  0  0  0  0  0  0
   -3.8067    2.4800    0.0000 H   0  0  0  0  0  0  0  0  0  0  0  0
   -2.5813    3.5086    0.0000 H   0  0  0  0  0  0  0  0  0  0  0  0
   -3.5294    0.9044    0.0000 H   0  0  0  0  0  0  0  0  0  0  0  0
   -0.8000   -1.3856    0.0000 C   0  0  0  0  0  0  0  0  0  0  0  0
   -0.5912   -2.9719    0.0000 H   0  0  0  0  0  0  0  0  0  0  0  0
    0.4694   -2.3596    0.0000 H   0  0  0  0  0  0  0  0  0  0  0  0
   -2.3998   -1.3856    0.0000 C   0  0  0  0  0  0  0  0  0  0  0  0
   -2.6088    0.2007    0.0000 H   0  0  0  0  0  0  0  0  0  0  0  0
   -3.6696   -0.4116    0.0000 H   0  0  0  0  0  0  0  0  0  0  0  0
   -3.1999   -2.7713    0.0000 C   0  0  0  0  0  0  0  0  0  0  0  0
   -2.9913   -4.3576    0.0000 H   0  0  0  0  0  0  0  0  0  0  0  0
   -1.9307   -3.7453    0.0000 H   0  0  0  0  0  0  0  0  0  0  0  0
   -4.7997   -2.7713    0.0000 C   0  0  0  0  0  0  0  0  0  0  0  0
   -6.4000   -2.7713    0.0000 H   0  0  0  0  0  0  0  0  0  0  0  0
   -5.6000   -4.1570    0.0000 H   0  0  0  0  0  0  0  0  0  0  0  0
   -5.6000   -1.3856    0.0000 H   0  0  0  0  0  0  0  0  0  0  0  0
    2.4000   -1.3856    0.0000 C   0  0  0  0  0  0  0  0  0  0  0  0
    2.1222   -2.9613    0.0000 N   0  0  0  0  0  0  0  0  0  0  0  0
    0.6186   -3.5085    0.0000 O   0  0  0  0  0  0  0  0  0  0  0  0
    3.3479   -3.9897    0.0000 O   0  0  0  0  0  0  0  0  0  0  0  0
    4.0000   -1.3856    0.0000 C   0  0  0  0  0  0  0  0  0  0  0  0
    4.8001   -2.7713    0.0000 H   0  0  0  0  0  0  0  0  0  0  0  0
    4.8001   -0.0000    0.0000 C   0  0  0  0  0  0  0  0  0  0  0  0
    6.3999   -0.0000    0.0000 C   0  0  0  0  0  0  0  0  0  0  0  0
    8.0000   -0.0000    0.0000 F   0  0  0  0  0  0  0  0  0  0  0  0
    7.2000   -1.3856    0.0000 F   0  0  0  0  0  0  0  0  0  0  0  0
    7.2000    1.3857    0.0000 F   0  0  0  0  0  0  0  0  0  0  0  0
    4.0000    1.3857    0.0000 C   0  0  0  0  0  0  0  0  0  0  0  0
    4.8001    2.7713    0.0000 H   0  0  0  0  0  0  0  0  0  0  0  0
  1  2  1  0  0  0  0
  2  3  1  0  0  0  0
  2  4  2  0  0  0  0
  1  5  1  0  0  0  0
  5  6  1  0  0  0  0
  6  7  1  0  0  0  0
  7  8  1  0  0  0  0
  7  9  1  0  0  0  0
  7 10  1  0  0  0  0
 10 11  1  0  0  0  0
 10 12  1  0  0  0  0
 10 13  1  0  0  0  0
  6 14  1  0  0  0  0
 14 15  1  0  0  0  0
 14 16  1  0  0  0  0
 14 17  1  0  0  0  0
 17 18  1  0  0  0  0
 17 19  1  0  0  0  0
 17 20  1  0  0  0  0
 20 21  1  0  0  0  0
 20 22  1  0  0  0  0
 20 23  1  0  0  0  0
 23 24  1  0  0  0  0
 23 25  1  0  0  0  0
 23 26  1  0  0  0  0
  5 27  2  0  0  0  0
 27 28  1  0  0  0  0
 28 29  1  0  0  0  0
 28 30  2  0  0  0  0
 27 31  1  0  0  0  0
 31 32  1  0  0  0  0
 31 33  2  0  0  0  0
 33 34  1  0  0  0  0
 34 35  1  0  0  0  0
 34 36  1  0  0  0  0
 34 37  1  0  0  0  0
 33 38  1  0  0  0  0
 38  1  2  0  0  0  0
 38 39  1  0  0  0  0
M  CHG  4   2   1   3  -1  28   1  29  -1
M  END
> <ChemID>
100996

> <source_casrn>
1861-40-1

> <CAS>
1861-40-1

> <SMILES>
CCCCN(CC)c1c(cc(cc1[N+]([O-])=O)C(F)(F)F)[N+]([O-])=O

> <NAME>
Benefin

> <preferred_name>
Benfluralin

> <iupac>
N-butyl-N-ethyl-2,6-dinitro-4-(trifluoromethyl)aniline

> <MPID>
100988

> <dsstox_substance_id>
DTXSID3023899

> <Canonical_QSARr>
CCCCN(CC)c1c(cc(cc1[N+]([O-])=O)C(F)(F)F)[N+]([O-])=O

> <InChI_Code_QSARr>
InChI=1S/C13H16F3N3O4/c1-3-5-6-17(4-2)12-10(18(20)21)7-9(13(14,15)16)8-11(12)19(22)23/h7-8H,3-6H2,1-2H3

> <InChI Key_QSARr>
SMDHCQAYESWHAE-UHFFFAOYSA-N

> <Salt_Solvent>
?

> <Ready_Biodeg>
0.0

$$$$
101000
  -INDIGO-08031722522D

 16 16  0  0  0  0  0  0  0  0999 V2000
   -2.7713   -0.0000    0.0000 C   0  0  0  0  0  0  0  0  0  0  0  0
   -2.7713   -1.6000    0.0000 N   0  0  0  0  0  0  0  0  0  0  0  0
   -1.3856   -2.4000    0.0000 C   0  0  0  0  0  0  0  0  0  0  0  0
   -1.3856   -4.0000    0.0000 Cl  0  0  0  0  0  0  0  0  0  0  0  0
    0.0000   -1.6000    0.0000 C   0  0  0  0  0  0  0  0  0  0  0  0
    1.3857   -2.4000    0.0000 Cl  0  0  0  0  0  0  0  0  0  0  0  0
    0.0000   -0.0000    0.0000 C   0  0  0  0  0  0  0  0  0  0  0  0
    1.3857    0.8000    0.0000 N   0  0  0  0  0  0  0  0  0  0  0  0
    2.7713   -0.0000    0.0000 H   0  0  0  0  0  0  0  0  0  0  0  0
    1.3857    2.4000    0.0000 H   0  0  0  0  0  0  0  0  0  0  0  0
   -1.3856    0.8000    0.0000 C   0  0  0  0  0  0  0  0  0  0  0  0
   -1.3856    2.4000    0.0000 Cl  0  0  0  0  0  0  0  0  0  0  0  0
   -4.1570    0.8000    0.0000 C   0  0  0  0  0  0  0  0  0  0  0  0
   -4.1570    2.4000    0.0000 O   0  0  0  0  0  0  0  0  0  0  0  0
   -5.5426   -0.0000    0.0000 O   0  0  0  0  0  0  0  0  0  0  0  0
   -6.9282    0.8000    0.0000 H   0  0  0  0  0  0  0  0  0  0  0  0
  1  2  1  0  0  0  0
  2  3  2  0  0  0  0
  3  4  1  0  0  0  0
  3  5  1  0  0  0  0
  5  6  1  0  0  0  0
  5  7  2  0  0  0  0
  7  8  1  0  0  0  0
  8  9  1  0  0  0  0
  8 10  1  0  0  0  0
  7 11  1  0  0  0  0
 11  1  2  0  0  0  0
 11 12  1  0  0  0  0
  1 13  1  0  0  0  0
 13 14  2  0  0  0  0
 13 15  1  0  0  0  0
 15 16  1  0  0  0  0
M  END
> <ChemID>
101000

> <source_casrn>
1918-02-1

> <CAS>
1918-02-1

> <SMILES>
Nc1c(Cl)c([n]c(Cl)c1Cl)C(O)=O

> <NAME>
Picloram

> <preferred_name>
Picloram

> <iupac>
C6H3Cl3N2O2

> <MPID>
100992

> <dsstox_substance_id>
DTXSID1021160

> <Canonical_QSARr>
Nc1c(Cl)c([n]c(Cl)c1Cl)C(O)=O

> <InChI_Code_QSARr>
InChI=1S/C6H3Cl3N2O2/c7-1-3(10)2(8)5(9)11-4(1)6(12)13/h(H2,10,11)(H,12,13)

> <InChI Key_QSARr>
NQQVFXUMIDALNH-UHFFFAOYSA-N

> <Salt_Solvent>
?

> <Ready_Biodeg>
0.0

$$$$
101004
  -INDIGO-08031722522D

 35 36  0  0  0  0  0  0  0  0999 V2000
    1.3855   -0.8000    0.0000 C   0  0  0  0  0  0  0  0  0  0  0  0
    1.3855   -2.4000    0.0000 O   0  0  0  0  0  0  0  0  0  0  0  0
    0.0000   -0.0000    0.0000 N   0  0  0  0  0  0  0  0  0  0  0  0
   -1.3858   -0.8000    0.0000 C   0  0  0  0  0  0  0  0  0  0  0  0
   -2.7713   -1.6000    0.0000 H   0  0  0  0  0  0  0  0  0  0  0  0
   -2.7713   -0.0000    0.0000 H   0  0  0  0  0  0  0  0  0  0  0  0
   -1.3858   -2.4000    0.0000 H   0  0  0  0  0  0  0  0  0  0  0  0
    0.0000    1.6000    0.0000 C   0  0  0  0  0  0  0  0  0  0  0  0
    0.0000    3.2000    0.0000 H   0  0  0  0  0  0  0  0  0  0  0  0
   -1.3858    2.4000    0.0000 H   0  0  0  0  0  0  0  0  0  0  0  0
    1.3855    2.4000    0.0000 H   0  0  0  0  0  0  0  0  0  0  0  0
    2.7713   -0.0000    0.0000 N   0  0  0  0  0  0  0  0  0  0  0  0
    2.7713    1.6000    0.0000 H   0  0  0  0  0  0  0  0  0  0  0  0
    4.1568   -0.8000    0.0000 C   0  0  0  0  0  0  0  0  0  0  0  0
    4.1568   -2.4000    0.0000 C   0  0  0  0  0  0  0  0  0  0  0  0
    2.7713   -3.2000    0.0000 H   0  0  0  0  0  0  0  0  0  0  0  0
    5.5426   -3.2000    0.0000 C   0  0  0  0  0  0  0  0  0  0  0  0
    5.5426   -4.8000    0.0000 H   0  0  0  0  0  0  0  0  0  0  0  0
    6.9281   -2.4000    0.0000 C   0  0  0  0  0  0  0  0  0  0  0  0
    8.3139   -3.2000    0.0000 O   0  0  0  0  0  0  0  0  0  0  0  0
    9.8896   -2.9221    0.0000 C   0  0  0  0  0  0  0  0  0  0  0  0
   10.9180   -4.1478    0.0000 C   0  0  0  0  0  0  0  0  0  0  0  0
   10.3707   -5.6513    0.0000 H   0  0  0  0  0  0  0  0  0  0  0  0
   12.4938   -3.8700    0.0000 C   0  0  0  0  0  0  0  0  0  0  0  0
   13.5222   -5.0957    0.0000 H   0  0  0  0  0  0  0  0  0  0  0  0
   13.0409   -2.3665    0.0000 C   0  0  0  0  0  0  0  0  0  0  0  0
   14.6166   -2.0887    0.0000 Cl  0  0  0  0  0  0  0  0  0  0  0  0
   12.0125   -1.1408    0.0000 C   0  0  0  0  0  0  0  0  0  0  0  0
   12.5596    0.3627    0.0000 H   0  0  0  0  0  0  0  0  0  0  0  0
   10.4367   -1.4186    0.0000 C   0  0  0  0  0  0  0  0  0  0  0  0
    9.4083   -0.1930    0.0000 H   0  0  0  0  0  0  0  0  0  0  0  0
    6.9281   -0.8000    0.0000 C   0  0  0  0  0  0  0  0  0  0  0  0
    8.3139   -0.0000    0.0000 H   0  0  0  0  0  0  0  0  0  0  0  0
    5.5426   -0.0000    0.0000 C   0  0  0  0  0  0  0  0  0  0  0  0
    5.5426    1.6000    0.0000 H   0  0  0  0  0  0  0  0  0  0  0  0
  1  2  2  0  0  0  0
  1  3  1  0  0  0  0
  3  4  1  0  0  0  0
  4  5  1  0  0  0  0
  4  6  1  0  0  0  0
  4  7  1  0  0  0  0
  3  8  1  0  0  0  0
  8  9  1  0  0  0  0
  8 10  1  0  0  0  0
  8 11  1  0  0  0  0
  1 12  1  0  0  0  0
 12 13  1  0  0  0  0
 12 14  1  0  0  0  0
 14 15  1  0  0  0  0
 15 16  1  0  0  0  0
 15 17  2  0  0  0  0
 17 18  1  0  0  0  0
 17 19  1  0  0  0  0
 19 20  1  0  0  0  0
 20 21  1  0  0  0  0
 21 22  1  0  0  0  0
 22 23  1  0  0  0  0
 22 24  2  0  0  0  0
 24 25  1  0  0  0  0
 24 26  1  0  0  0  0
 26 27  1  0  0  0  0
 26 28  2  0  0  0  0
 28 29  1  0  0  0  0
 28 30  1  0  0  0  0
 30 21  2  0  0  0  0
 30 31  1  0  0  0  0
 19 32  2  0  0  0  0
 32 33  1  0  0  0  0
 32 34  1  0  0  0  0
 34 14  2  0  0  0  0
 34 35  1  0  0  0  0
M  END
> <ChemID>
101004

> <source_casrn>
1982-47-4

> <CAS>
1982-47-4

> <SMILES>
CN(C)C(=O)Nc1ccc(cc1)Oc1ccc(Cl)cc1

> <NAME>
CHLOROXURON

> <preferred_name>
Chloroxuron

> <iupac>
3-[4-(4-chlorophenoxy)phenyl]-1,1-dimethylurea

> <MPID>
100996

> <dsstox_substance_id>
DTXSID7040287

> <Canonical_QSARr>
CN(C)C(=O)Nc1ccc(cc1)Oc1ccc(Cl)cc1

> <InChI_Code_QSARr>
InChI=1S/C15H15ClN2O2/c1-18(2)15(19)17-12-5-9-14(10-6-12)20-13-7-3-11(16)4-8-13/h3-10H,1-2H3,(H,17,19)

> <InChI Key_QSARr>
IVUXTESCPZUGJC-UHFFFAOYSA-N

> <Salt_Solvent>
?

> <Ready_Biodeg>
0.0

$$$$
101008
  -INDIGO-08031722522D

 34 33  0  0  0  0  0  0  0  0999 V2000
    6.9283    0.8000    0.0000 C   0  0  0  0  0  0  0  0  0  0  0  0
    8.3138    1.6000    0.0000 H   0  0  0  0  0  0  0  0  0  0  0  0
    8.3138    0.0000    0.0000 H   0  0  0  0  0  0  0  0  0  0  0  0
    6.9283    2.4000    0.0000 H   0  0  0  0  0  0  0  0  0  0  0  0
    5.5427    0.0000    0.0000 C   0  0  0  0  0  0  0  0  0  0  0  0
    6.1549   -1.4782    0.0000 H   0  0  0  0  0  0  0  0  0  0  0  0
    4.9302   -1.4782    0.0000 H   0  0  0  0  0  0  0  0  0  0  0  0
    4.1569    0.8000    0.0000 C   0  0  0  0  0  0  0  0  0  0  0  0
    3.5446    2.2782    0.0000 H   0  0  0  0  0  0  0  0  0  0  0  0
    4.7691    2.2782    0.0000 H   0  0  0  0  0  0  0  0  0  0  0  0
    2.7713    0.0000    0.0000 C   0  0  0  0  0  0  0  0  0  0  0  0
    3.3835   -1.4782    0.0000 H   0  0  0  0  0  0  0  0  0  0  0  0
    2.1590   -1.4782    0.0000 H   0  0  0  0  0  0  0  0  0  0  0  0
    1.3857    0.8000    0.0000 C   0  0  0  0  0  0  0  0  0  0  0  0
    0.7735    2.2782    0.0000 H   0  0  0  0  0  0  0  0  0  0  0  0
    1.9979    2.2782    0.0000 H   0  0  0  0  0  0  0  0  0  0  0  0
    0.0001    0.0000    0.0000 C   0  0  0  0  0  0  0  0  0  0  0  0
    0.6124   -1.4782    0.0000 H   0  0  0  0  0  0  0  0  0  0  0  0
   -0.6124   -1.4782    0.0000 H   0  0  0  0  0  0  0  0  0  0  0  0
   -1.3857    0.8000    0.0000 C   0  0  0  0  0  0  0  0  0  0  0  0
   -1.9979    2.2782    0.0000 H   0  0  0  0  0  0  0  0  0  0  0  0
   -0.7735    2.2782    0.0000 H   0  0  0  0  0  0  0  0  0  0  0  0
   -2.7713    0.0000    0.0000 C   0  0  0  0  0  0  0  0  0  0  0  0
   -2.1590   -1.4782    0.0000 H   0  0  0  0  0  0  0  0  0  0  0  0
   -3.3835   -1.4782    0.0000 H   0  0  0  0  0  0  0  0  0  0  0  0
   -4.1569    0.8000    0.0000 C   0  0  0  0  0  0  0  0  0  0  0  0
   -4.7691    2.2782    0.0000 H   0  0  0  0  0  0  0  0  0  0  0  0
   -3.5446    2.2782    0.0000 H   0  0  0  0  0  0  0  0  0  0  0  0
   -5.5427    0.0000    0.0000 C   0  0  0  0  0  0  0  0  0  0  0  0
   -4.9302   -1.4782    0.0000 H   0  0  0  0  0  0  0  0  0  0  0  0
   -6.1549   -1.4782    0.0000 H   0  0  0  0  0  0  0  0  0  0  0  0
   -6.9283    0.8000    0.0000 N   0  0  0  0  0  0  0  0  0  0  0  0
   -8.3138    0.0000    0.0000 H   0  0  0  0  0  0  0  0  0  0  0  0
   -6.9283    2.4000    0.0000 H   0  0  0  0  0  0  0  0  0  0  0  0
  1  2  1  0  0  0  0
  1  3  1  0  0  0  0
  1  4  1  0  0  0  0
  1  5  1  0  0  0  0
  5  6  1  0  0  0  0
  5  7  1  0  0  0  0
  5  8  1  0  0  0  0
  8  9  1  0  0  0  0
  8 10  1  0  0  0  0
  8 11  1  0  0  0  0
 11 12  1  0  0  0  0
 11 13  1  0  0  0  0
 11 14  1  0  0  0  0
 14 15  1  0  0  0  0
 14 16  1  0  0  0  0
 14 17  1  0  0  0  0
 17 18  1  0  0  0  0
 17 19  1  0  0  0  0
 17 20  1  0  0  0  0
 20 21  1  0  0  0  0
 20 22  1  0  0  0  0
 20 23  1  0  0  0  0
 23 24  1  0  0  0  0
 23 25  1  0  0  0  0
 23 26  1  0  0  0  0
 26 27  1  0  0  0  0
 26 28  1  0  0  0  0
 26 29  1  0  0  0  0
 29 30  1  0  0  0  0
 29 31  1  0  0  0  0
 29 32  1  0  0  0  0
 32 33  1  0  0  0  0
 32 34  1  0  0  0  0
M  END
> <ChemID>
101008

> <source_casrn>
2016-57-1

> <CAS>
2016-57-1

> <SMILES>
CCCCCCCCCCN

> <NAME>
n-Decylamine

> <preferred_name>
1-Decanamine

> <iupac>
decan-1-amine

> <MPID>
101000

> <dsstox_substance_id>
DTXSID2022171

> <Canonical_QSARr>
CCCCCCCCCCN

> <InChI_Code_QSARr>
InChI=1S/C10H23N/c1-2-3-4-5-6-7-8-9-10-11/h2-11H2,1H3

> <InChI Key_QSARr>
MHZGKXUYDGKKIU-UHFFFAOYSA-N

> <Salt_Solvent>
?

> <Ready_Biodeg>
1.0

$$$$
101012
  -INDIGO-08031722522D

 18 18  0  0  0  0  0  0  0  0999 V2000
   -2.7713    1.6000    0.0000 C   0  0  0  0  0  0  0  0  0  0  0  0
   -1.3856    2.4000    0.0000 C   0  0  0  0  0  0  0  0  0  0  0  0
   -1.3856    4.0000    0.0000 H   0  0  0  0  0  0  0  0  0  0  0  0
    0.0000    1.6000    0.0000 C   0  0  0  0  0  0  0  0  0  0  0  0
    1.3857    2.4000    0.0000 N   0  0  0  0  0  0  0  0  0  0  0  0
    1.3856    4.0000    0.0000 O   0  0  0  0  0  0  0  0  0  0  0  0
    2.7713    1.6000    0.0000 O   0  0  0  0  0  0  0  0  0  0  0  0
    0.0000    0.0000    0.0000 C   0  0  0  0  0  0  0  0  0  0  0  0
    1.3857   -0.8000    0.0000 C   0  0  0  0  0  0  0  0  0  0  0  0
    2.7713   -1.6000    0.0000 H   0  0  0  0  0  0  0  0  0  0  0  0
    1.3857   -2.4000    0.0000 H   0  0  0  0  0  0  0  0  0  0  0  0
    2.7713    0.0000    0.0000 H   0  0  0  0  0  0  0  0  0  0  0  0
   -1.3856   -0.8000    0.0000 C   0  0  0  0  0  0  0  0  0  0  0  0
   -1.3856   -2.4000    0.0000 H   0  0  0  0  0  0  0  0  0  0  0  0
   -2.7713    0.0000    0.0000 C   0  0  0  0  0  0  0  0  0  0  0  0
   -4.1570   -0.8000    0.0000 H   0  0  0  0  0  0  0  0  0  0  0  0
   -4.1570    2.4000    0.0000 O   0  0  0  0  0  0  0  0  0  0  0  0
   -5.5426    1.6000    0.0000 H   0  0  0  0  0  0  0  0  0  0  0  0
  1  2  1  0  0  0  0
  2  3  1  0  0  0  0
  2  4  2  0  0  0  0
  4  5  1  0  0  0  0
  5  6  1  0  0  0  0
  5  7  2  0  0  0  0
  4  8  1  0  0  0  0
  8  9  1  0  0  0  0
  9 10  1  0  0  0  0
  9 11  1  0  0  0  0
  9 12  1  0  0  0  0
  8 13  2  0  0  0  0
 13 14  1  0  0  0  0
 13 15  1  0  0  0  0
 15  1  2  0  0  0  0
 15 16  1  0  0  0  0
  1 17  1  0  0  0  0
 17 18  1  0  0  0  0
M  CHG  2   5   1   6  -1
M  END
> <ChemID>
101012

> <source_casrn>
2042-14-0

> <CAS>
2042-14-0

> <SMILES>
c1c(O)ccc(C)c1N(=O)=O

> <NAME>
3-Nitro-p-cresol

> <preferred_name>


> <iupac>


> <MPID>
101004

> <dsstox_substance_id>
DTXSID90879085

> <Canonical_QSARr>
Cc1ccc(O)cc1[N+]([O-])=O

> <InChI_Code_QSARr>
InChI=1S/C7H7NO3/c1-5-2-3-6(9)4-7(5)8(10)11/h2-4,9H,1H3

> <InChI Key_QSARr>
BQEXDUKMTVYBRK-UHFFFAOYSA-N

> <Salt_Solvent>
?

> <Ready_Biodeg>
0.0

$$$$
101018
  -INDIGO-08031722522D

 35 36  0  0  0  0  0  0  0  0999 V2000
    4.0001    1.3857    0.0000 C   0  0  0  0  0  0  0  0  0  0  0  0
    4.8000    2.7713    0.0000 H   0  0  0  0  0  0  0  0  0  0  0  0
    5.6001    1.3857    0.0000 H   0  0  0  0  0  0  0  0  0  0  0  0
    3.2000    2.7713    0.0000 H   0  0  0  0  0  0  0  0  0  0  0  0
    2.4001    1.3857    0.0000 C   0  0  0  0  0  0  0  0  0  0  0  0
    2.1912    2.9720    0.0000 H   0  0  0  0  0  0  0  0  0  0  0  0
    1.1306    2.3597    0.0000 H   0  0  0  0  0  0  0  0  0  0  0  0
    1.6000    0.0000    0.0000 O   0  0  0  0  0  0  0  0  0  0  0  0
   -0.0000    0.0000    0.0000 P   0  0  0  0  0  0  0  0  0  0  0  0
    0.8001    1.3857    0.0000 S   0  0  0  0  0  0  0  0  0  0  0  0
    0.5472   -1.5035    0.0000 O   0  0  0  0  0  0  0  0  0  0  0  0
    2.0507   -2.0507    0.0000 C   0  0  0  0  0  0  0  0  0  0  0  0
    3.2764   -1.0223    0.0000 C   0  0  0  0  0  0  0  0  0  0  0  0
    2.9986    0.5534    0.0000 H   0  0  0  0  0  0  0  0  0  0  0  0
    4.7798   -1.5695    0.0000 C   0  0  0  0  0  0  0  0  0  0  0  0
    6.0055   -0.5411    0.0000 H   0  0  0  0  0  0  0  0  0  0  0  0
    5.0578   -3.1451    0.0000 C   0  0  0  0  0  0  0  0  0  0  0  0
    6.5612   -3.6925    0.0000 N   0  0  0  0  0  0  0  0  0  0  0  0
    7.7869   -2.6639    0.0000 O   0  0  0  0  0  0  0  0  0  0  0  0
    6.8392   -5.2681    0.0000 O   0  0  0  0  0  0  0  0  0  0  0  0
    3.8321   -4.1737    0.0000 C   0  0  0  0  0  0  0  0  0  0  0  0
    4.1098   -5.7494    0.0000 H   0  0  0  0  0  0  0  0  0  0  0  0
    2.3286   -3.6265    0.0000 C   0  0  0  0  0  0  0  0  0  0  0  0
    1.1029   -4.6549    0.0000 H   0  0  0  0  0  0  0  0  0  0  0  0
   -1.6000    0.0000    0.0000 C   0  0  0  0  0  0  0  0  0  0  0  0
   -2.3999    1.3857    0.0000 C   0  0  0  0  0  0  0  0  0  0  0  0
   -1.6000    2.7713    0.0000 H   0  0  0  0  0  0  0  0  0  0  0  0
   -3.9999    1.3857    0.0000 C   0  0  0  0  0  0  0  0  0  0  0  0
   -4.8000    2.7713    0.0000 H   0  0  0  0  0  0  0  0  0  0  0  0
   -4.8000    0.0000    0.0000 C   0  0  0  0  0  0  0  0  0  0  0  0
   -6.4000    0.0000    0.0000 H   0  0  0  0  0  0  0  0  0  0  0  0
   -3.9999   -1.3856    0.0000 C   0  0  0  0  0  0  0  0  0  0  0  0
   -4.8000   -2.7713    0.0000 H   0  0  0  0  0  0  0  0  0  0  0  0
   -2.3999   -1.3856    0.0000 C   0  0  0  0  0  0  0  0  0  0  0  0
   -1.6000   -2.7713    0.0000 H   0  0  0  0  0  0  0  0  0  0  0  0
  1  2  1  0  0  0  0
  1  3  1  0  0  0  0
  1  4  1  0  0  0  0
  1  5  1  0  0  0  0
  5  6  1  0  0  0  0
  5  7  1  0  0  0  0
  5  8  1  0  0  0  0
  8  9  1  0  0  0  0
  9 10  2  0  0  0  0
  9 11  1  0  0  0  0
 11 12  1  0  0  0  0
 12 13  1  0  0  0  0
 13 14  1  0  0  0  0
 13 15  2  0  0  0  0
 15 16  1  0  0  0  0
 15 17  1  0  0  0  0
 17 18  1  0  0  0  0
 18 19  2  0  0  0  0
 18 20  1  0  0  0  0
 17 21  2  0  0  0  0
 21 22  1  0  0  0  0
 21 23  1  0  0  0  0
 23 12  2  0  0  0  0
 23 24  1  0  0  0  0
  9 25  1  0  0  0  0
 25 26  1  0  0  0  0
 26 27  1  0  0  0  0
 26 28  2  0  0  0  0
 28 29  1  0  0  0  0
 28 30  1  0  0  0  0
 30 31  1  0  0  0  0
 30 32  2  0  0  0  0
 32 33  1  0  0  0  0
 32 34  1  0  0  0  0
 34 25  2  0  0  0  0
 34 35  1  0  0  0  0
M  CHG  2  18   1  20  -1
M  END
> <ChemID>
101018

> <source_casrn>
2104-64-5

> <CAS>
2104-64-5

> <SMILES>
CCOP(=S)(Oc1ccc(cc1)[N+]([O-])=O)c1ccccc1

> <NAME>
EPN

> <preferred_name>
EPN

> <iupac>
O-ethyl O-(4-nitrophenyl) phenylphosphonothioate

> <MPID>
101008

> <dsstox_substance_id>
DTXSID7022174

> <Canonical_QSARr>
CCOP(=S)(Oc1ccc(cc1)[N+]([O-])=O)c1ccccc1

> <InChI_Code_QSARr>
InChI=1S/C14H14NO4PS/c1-2-18-20(21,14-6-4-3-5-7-14)19-13-10-8-12(9-11-13)15(16)17/h3-11H,2H2,1H3

> <InChI Key_QSARr>
AIGRXSNSLVJMEA-UHFFFAOYSA-N

> <Salt_Solvent>
?

> <Ready_Biodeg>
0.0

$$$$
101024
  -INDIGO-08031722522D

 22 23  0  0  0  0  0  0  0  0999 V2000
    0.0000    0.0000    0.0000 C   0  0  0  0  0  0  0  0  0  0  0  0
    1.6000    0.0000    0.0000 C   0  0  0  0  0  0  0  0  0  0  0  0
    2.3999    1.3856    0.0000 O   0  0  0  0  0  0  0  0  0  0  0  0
    4.0001    1.3856    0.0000 C   0  0  0  0  0  0  0  0  0  0  0  0
    4.8000    2.7713    0.0000 H   0  0  0  0  0  0  0  0  0  0  0  0
    5.6000    1.3856    0.0000 H   0  0  0  0  0  0  0  0  0  0  0  0
    3.2001    2.7713    0.0000 H   0  0  0  0  0  0  0  0  0  0  0  0
    2.3999   -1.3856    0.0000 C   0  0  0  0  0  0  0  0  0  0  0  0
    4.0001   -1.3856    0.0000 H   0  0  0  0  0  0  0  0  0  0  0  0
    1.6000   -2.7713    0.0000 C   0  0  0  0  0  0  0  0  0  0  0  0
    2.3999   -4.1569    0.0000 H   0  0  0  0  0  0  0  0  0  0  0  0
    0.0000   -2.7713    0.0000 C   0  0  0  0  0  0  0  0  0  0  0  0
   -0.8000   -4.1569    0.0000 H   0  0  0  0  0  0  0  0  0  0  0  0
   -0.8000   -1.3856    0.0000 C   0  0  0  0  0  0  0  0  0  0  0  0
   -2.4001   -1.3856    0.0000 C   0  0  0  0  0  0  0  0  0  0  0  0
   -3.2000   -2.7713    0.0000 H   0  0  0  0  0  0  0  0  0  0  0  0
   -3.2000    0.0000    0.0000 C   0  0  0  0  0  0  0  0  0  0  0  0
   -4.8000    0.0000    0.0000 H   0  0  0  0  0  0  0  0  0  0  0  0
   -2.4001    1.3856    0.0000 C   0  0  0  0  0  0  0  0  0  0  0  0
   -3.2000    2.7713    0.0000 H   0  0  0  0  0  0  0  0  0  0  0  0
   -0.8000    1.3856    0.0000 C   0  0  0  0  0  0  0  0  0  0  0  0
    0.0000    2.7713    0.0000 H   0  0  0  0  0  0  0  0  0  0  0  0
  1  2  1  0  0  0  0
  2  3  1  0  0  0  0
  3  4  1  0  0  0  0
  4  5  1  0  0  0  0
  4  6  1  0  0  0  0
  4  7  1  0  0  0  0
  2  8  2  0  0  0  0
  8  9  1  0  0  0  0
  8 10  1  0  0  0  0
 10 11  1  0  0  0  0
 10 12  2  0  0  0  0
 12 13  1  0  0  0  0
 12 14  1  0  0  0  0
 14  1  1  0  0  0  0
 14 15  2  0  0  0  0
 15 16  1  0  0  0  0
 15 17  1  0  0  0  0
 17 18  1  0  0  0  0
 17 19  2  0  0  0  0
 19 20  1  0  0  0  0
 19 21  1  0  0  0  0
 21  1  2  0  0  0  0
 21 22  1  0  0  0  0
M  END
> <ChemID>
101024

> <source_casrn>
2216-69-5

> <CAS>
2216-69-5

> <SMILES>
COc1cccc2ccccc21

> <NAME>
Naphthalene, 1-methoxy-

> <preferred_name>
Naphthalene, 1-methoxy-

> <iupac>
1-Methoxynaphthalene

> <MPID>
101013

> <dsstox_substance_id>
DTXSID5062263

> <Canonical_QSARr>
COc1cccc2ccccc21

> <InChI_Code_QSARr>
InChI=1S/C11H10O/c1-12-11-8-4-6-9-5-2-3-7-10(9)11/h2-8H,1H3

> <InChI Key_QSARr>
NQMUGNMMFTYOHK-UHFFFAOYSA-N

> <Salt_Solvent>
?

> <Ready_Biodeg>
0.0

$$$$
101028
  -INDIGO-08031722522D

 23 22  0  0  0  0  0  0  0  0999 V2000
    2.7712    0.0000    0.0000 O   0  0  0  0  0  0  0  0  0  0  0  0
    4.1569    0.8000    0.0000 C   0  0  0  0  0  0  0  0  0  0  0  0
    3.5446    2.2782    0.0000 H   0  0  0  0  0  0  0  0  0  0  0  0
    4.7692    2.2782    0.0000 H   0  0  0  0  0  0  0  0  0  0  0  0
    5.5427    0.0000    0.0000 C   0  0  0  0  0  0  0  0  0  0  0  0
    6.1548   -1.4782    0.0000 H   0  0  0  0  0  0  0  0  0  0  0  0
    4.9304   -1.4782    0.0000 H   0  0  0  0  0  0  0  0  0  0  0  0
    6.9282    0.8000    0.0000 C   0  0  0  0  0  0  0  0  0  0  0  0
    6.3159    2.2782    0.0000 H   0  0  0  0  0  0  0  0  0  0  0  0
    7.5405    2.2782    0.0000 H   0  0  0  0  0  0  0  0  0  0  0  0
    8.3139    0.0000    0.0000 O   0  0  0  0  0  0  0  0  0  0  0  0
    9.6995    0.8000    0.0000 H   0  0  0  0  0  0  0  0  0  0  0  0
    1.3856    0.8000    0.0000 C   0  0  0  0  0  0  0  0  0  0  0  0
    0.7733    2.2782    0.0000 H   0  0  0  0  0  0  0  0  0  0  0  0
    1.9980    2.2782    0.0000 H   0  0  0  0  0  0  0  0  0  0  0  0
   -0.0001    0.0000    0.0000 C   0  0  0  0  0  0  0  0  0  0  0  0
    0.6122   -1.4782    0.0000 H   0  0  0  0  0  0  0  0  0  0  0  0
   -0.6122   -1.4782    0.0000 H   0  0  0  0  0  0  0  0  0  0  0  0
   -1.3856    0.8000    0.0000 C   0  0  0  0  0  0  0  0  0  0  0  0
   -1.9980    2.2782    0.0000 H   0  0  0  0  0  0  0  0  0  0  0  0
   -0.7733    2.2782    0.0000 H   0  0  0  0  0  0  0  0  0  0  0  0
   -2.7714    0.0000    0.0000 O   0  0  0  0  0  0  0  0  0  0  0  0
   -4.1569    0.8000    0.0000 H   0  0  0  0  0  0  0  0  0  0  0  0
  1  2  1  0  0  0  0
  2  3  1  0  0  0  0
  2  4  1  0  0  0  0
  2  5  1  0  0  0  0
  5  6  1  0  0  0  0
  5  7  1  0  0  0  0
  5  8  1  0  0  0  0
  8  9  1  0  0  0  0
  8 10  1  0  0  0  0
  8 11  1  0  0  0  0
 11 12  1  0  0  0  0
  1 13  1  0  0  0  0
 13 14  1  0  0  0  0
 13 15  1  0  0  0  0
 13 16  1  0  0  0  0
 16 17  1  0  0  0  0
 16 18  1  0  0  0  0
 16 19  1  0  0  0  0
 19 20  1  0  0  0  0
 19 21  1  0  0  0  0
 19 22  1  0  0  0  0
 22 23  1  0  0  0  0
M  END
> <ChemID>
101028

> <source_casrn>
2396-61-4

> <CAS>
NOCAS_862919

> <SMILES>
O(CCCO)CCCO

> <NAME>
Bis(3-hydroxypropyl) ether

> <preferred_name>


> <iupac>


> <MPID>
101017

> <dsstox_substance_id>
DTXSID10862919

> <Canonical_QSARr>
OCCCOCCCO

> <InChI_Code_QSARr>
InChI=1S/C6H14O3/c7-3-1-5-9-6-2-4-8/h7-8H,1-6H2

> <InChI Key_QSARr>
SZXQTJUDPRGNJN-UHFFFAOYSA-N

> <Salt_Solvent>
?

> <Ready_Biodeg>
0.0

$$$$
101032
  -INDIGO-08031722522D

 28 27  0  0  0  0  0  0  0  0999 V2000
    0.2528    2.8892    0.0000 C   0  0  0  0  0  0  0  0  0  0  0  0
    1.2813    4.1148    0.0000 H   0  0  0  0  0  0  0  0  0  0  0  0
   -1.3230    3.1670    0.0000 H   0  0  0  0  0  0  0  0  0  0  0  0
    0.8000    1.3857    0.0000 C   0  0  0  0  0  0  0  0  0  0  0  0
    2.4000    1.3857    0.0000 H   0  0  0  0  0  0  0  0  0  0  0  0
   -0.0000   -0.0001    0.0000 C   0  0  0  0  0  0  0  0  0  0  0  0
   -0.7999   -1.3857    0.0000 H   0  0  0  0  0  0  0  0  0  0  0  0
   -1.3857    0.8000    0.0000 C   0  0  0  0  0  0  0  0  0  0  0  0
   -0.7734    2.2782    0.0000 H   0  0  0  0  0  0  0  0  0  0  0  0
   -1.9979    2.2782    0.0000 H   0  0  0  0  0  0  0  0  0  0  0  0
   -2.7712   -0.0001    0.0000 C   0  0  0  0  0  0  0  0  0  0  0  0
   -3.3835   -1.4782    0.0000 H   0  0  0  0  0  0  0  0  0  0  0  0
   -2.1590   -1.4782    0.0000 H   0  0  0  0  0  0  0  0  0  0  0  0
   -4.1569    0.8000    0.0000 C   0  0  0  0  0  0  0  0  0  0  0  0
   -4.1569    2.4000    0.0000 H   0  0  0  0  0  0  0  0  0  0  0  0
   -5.5425   -0.0001    0.0000 C   0  0  0  0  0  0  0  0  0  0  0  0
   -6.9282    0.8000    0.0000 C   0  0  0  0  0  0  0  0  0  0  0  0
   -8.3138    1.6000    0.0000 H   0  0  0  0  0  0  0  0  0  0  0  0
   -8.3138   -0.0001    0.0000 H   0  0  0  0  0  0  0  0  0  0  0  0
   -6.9282    2.4000    0.0000 H   0  0  0  0  0  0  0  0  0  0  0  0
   -5.5425   -1.6000    0.0000 C   0  0  0  0  0  0  0  0  0  0  0  0
   -5.5425   -3.2000    0.0000 H   0  0  0  0  0  0  0  0  0  0  0  0
   -6.9282   -2.4000    0.0000 H   0  0  0  0  0  0  0  0  0  0  0  0
   -4.1569   -2.4000    0.0000 H   0  0  0  0  0  0  0  0  0  0  0  0
    1.3856   -0.8000    0.0000 C   0  0  0  0  0  0  0  0  0  0  0  0
    2.7713   -1.6000    0.0000 H   0  0  0  0  0  0  0  0  0  0  0  0
    1.3856   -2.4000    0.0000 H   0  0  0  0  0  0  0  0  0  0  0  0
    2.7713   -0.0001    0.0000 H   0  0  0  0  0  0  0  0  0  0  0  0
  1  2  1  0  0  0  0
  1  3  1  0  0  0  0
  1  4  2  0  0  0  0
  4  5  1  0  0  0  0
  4  6  1  0  0  0  0
  6  7  1  0  0  0  0
  6  8  1  0  0  0  0
  8  9  1  0  0  0  0
  8 10  1  0  0  0  0
  8 11  1  0  0  0  0
 11 12  1  0  0  0  0
 11 13  1  0  0  0  0
 11 14  1  0  0  0  0
 14 15  1  0  0  0  0
 14 16  2  0  0  0  0
 16 17  1  0  0  0  0
 17 18  1  0  0  0  0
 17 19  1  0  0  0  0
 17 20  1  0  0  0  0
 16 21  1  0  0  0  0
 21 22  1  0  0  0  0
 21 23  1  0  0  0  0
 21 24  1  0  0  0  0
  6 25  1  0  0  0  0
 25 26  1  0  0  0  0
 25 27  1  0  0  0  0
 25 28  1  0  0  0  0
M  END
> <ChemID>
101032

> <source_casrn>
2436-90-0

> <CAS>
2436-90-0

> <SMILES>
CC(CCC=C(C)C)C=C

> <NAME>
1,6-Octadiene, 3,7-dimethyl-

> <preferred_name>
3,7-Dimethylocta-1,6-diene

> <iupac>
3,7-dimethylocta-1,6-diene

> <MPID>
101021

> <dsstox_substance_id>
DTXSID8029234

> <Canonical_QSARr>
CC(CCC=C(C)C)C=C

> <InChI_Code_QSARr>
InChI=1S/C10H18/c1-5-10(4)8-6-7-9(2)3/h5,7,10H,1,6,8H2,2-4H3

> <InChI Key_QSARr>
FUDNBFMOXDUIIE-UHFFFAOYSA-N

> <Salt_Solvent>
?

> <Ready_Biodeg>
1.0

$$$$
101036
  -INDIGO-08031722522D

 27 26  0  0  0  0  0  0  0  0999 V2000
    8.3138    0.0000    0.0000 C   0  0  0  0  0  0  0  0  0  0  0  0
    9.6995    0.8000    0.0000 H   0  0  0  0  0  0  0  0  0  0  0  0
    8.3138   -1.6000    0.0000 H   0  0  0  0  0  0  0  0  0  0  0  0
    6.9283    0.8000    0.0000 C   0  0  0  0  0  0  0  0  0  0  0  0
    6.9283    2.4000    0.0000 H   0  0  0  0  0  0  0  0  0  0  0  0
    5.5426    0.0000    0.0000 C   0  0  0  0  0  0  0  0  0  0  0  0
    5.5426   -1.6000    0.0000 O   0  0  0  0  0  0  0  0  0  0  0  0
    4.1569    0.8000    0.0000 O   0  0  0  0  0  0  0  0  0  0  0  0
    2.7712    0.0000    0.0000 C   0  0  0  0  0  0  0  0  0  0  0  0
    2.1590   -1.4782    0.0000 H   0  0  0  0  0  0  0  0  0  0  0  0
    3.3836   -1.4782    0.0000 H   0  0  0  0  0  0  0  0  0  0  0  0
    1.3857    0.8000    0.0000 C   0  0  0  0  0  0  0  0  0  0  0  0
    1.9979    2.2782    0.0000 H   0  0  0  0  0  0  0  0  0  0  0  0
    0.7733    2.2782    0.0000 H   0  0  0  0  0  0  0  0  0  0  0  0
    0.0000    0.0000    0.0000 C   0  0  0  0  0  0  0  0  0  0  0  0
   -0.6124   -1.4782    0.0000 H   0  0  0  0  0  0  0  0  0  0  0  0
    0.6124   -1.4782    0.0000 H   0  0  0  0  0  0  0  0  0  0  0  0
   -1.3857    0.8000    0.0000 C   0  0  0  0  0  0  0  0  0  0  0  0
   -0.7733    2.2782    0.0000 H   0  0  0  0  0  0  0  0  0  0  0  0
   -1.9978    2.2782    0.0000 H   0  0  0  0  0  0  0  0  0  0  0  0
   -2.7714    0.0000    0.0000 C   0  0  0  0  0  0  0  0  0  0  0  0
   -3.3835   -1.4782    0.0000 H   0  0  0  0  0  0  0  0  0  0  0  0
   -2.1590   -1.4782    0.0000 H   0  0  0  0  0  0  0  0  0  0  0  0
   -4.1569    0.8000    0.0000 C   0  0  0  0  0  0  0  0  0  0  0  0
   -5.5426    1.6000    0.0000 H   0  0  0  0  0  0  0  0  0  0  0  0
   -5.5426    0.0000    0.0000 H   0  0  0  0  0  0  0  0  0  0  0  0
   -4.1569    2.4000    0.0000 H   0  0  0  0  0  0  0  0  0  0  0  0
  1  2  1  0  0  0  0
  1  3  1  0  0  0  0
  1  4  2  0  0  0  0
  4  5  1  0  0  0  0
  4  6  1  0  0  0  0
  6  7  2  0  0  0  0
  6  8  1  0  0  0  0
  8  9  1  0  0  0  0
  9 10  1  0  0  0  0
  9 11  1  0  0  0  0
  9 12  1  0  0  0  0
 12 13  1  0  0  0  0
 12 14  1  0  0  0  0
 12 15  1  0  0  0  0
 15 16  1  0  0  0  0
 15 17  1  0  0  0  0
 15 18  1  0  0  0  0
 18 19  1  0  0  0  0
 18 20  1  0  0  0  0
 18 21  1  0  0  0  0
 21 22  1  0  0  0  0
 21 23  1  0  0  0  0
 21 24  1  0  0  0  0
 24 25  1  0  0  0  0
 24 26  1  0  0  0  0
 24 27  1  0  0  0  0
M  END
> <ChemID>
101036

> <source_casrn>
2499-95-8

> <CAS>
2499-95-8

> <SMILES>
CCCCCCOC(=O)C=C

> <NAME>
2-Propenoic acid, hexyl ester

> <preferred_name>
Hexyl acrylate

> <iupac>
hexyl prop-2-enoate

> <MPID>
101025

> <dsstox_substance_id>
DTXSID5022194

> <Canonical_QSARr>
CCCCCCOC(=O)C=C

> <InChI_Code_QSARr>
InChI=1S/C9H16O2/c1-3-5-6-7-8-11-9(10)4-2/h4H,2-3,5-8H2,1H3

> <InChI Key_QSARr>
LNMQRPPRQDGUDR-UHFFFAOYSA-N

> <Salt_Solvent>
?

> <Ready_Biodeg>
1.0

$$$$
101040
  -INDIGO-08031722522D

 18 18  0  0  0  0  0  0  0  0999 V2000
    0.0000    1.6000    0.0000 C   0  0  0  0  0  0  0  0  0  0  0  0
    0.0000    0.0000    0.0000 C   0  0  0  0  0  0  0  0  0  0  0  0
    1.3857   -0.8000    0.0000 C   0  0  0  0  0  0  0  0  0  0  0  0
    2.7713   -1.6000    0.0000 H   0  0  0  0  0  0  0  0  0  0  0  0
    1.3857   -2.4000    0.0000 H   0  0  0  0  0  0  0  0  0  0  0  0
    2.7713    0.0000    0.0000 H   0  0  0  0  0  0  0  0  0  0  0  0
   -1.3857   -0.8000    0.0000 C   0  0  0  0  0  0  0  0  0  0  0  0
   -1.3857   -2.4000    0.0000 H   0  0  0  0  0  0  0  0  0  0  0  0
   -2.7713    0.0000    0.0000 C   0  0  0  0  0  0  0  0  0  0  0  0
   -4.1570   -0.8000    0.0000 O   0  0  0  0  0  0  0  0  0  0  0  0
   -5.5426    0.0000    0.0000 H   0  0  0  0  0  0  0  0  0  0  0  0
   -2.7713    1.6000    0.0000 C   0  0  0  0  0  0  0  0  0  0  0  0
   -4.1570    2.4000    0.0000 H   0  0  0  0  0  0  0  0  0  0  0  0
   -1.3857    2.4000    0.0000 C   0  0  0  0  0  0  0  0  0  0  0  0
   -1.3856    4.0000    0.0000 H   0  0  0  0  0  0  0  0  0  0  0  0
    1.3856    2.4000    0.0000 N   0  0  0  0  0  0  0  0  0  0  0  0
    1.3856    4.0000    0.0000 O   0  0  0  0  0  0  0  0  0  0  0  0
    2.7713    1.6000    0.0000 O   0  0  0  0  0  0  0  0  0  0  0  0
  1  2  1  0  0  0  0
  2  3  1  0  0  0  0
  3  4  1  0  0  0  0
  3  5  1  0  0  0  0
  3  6  1  0  0  0  0
  2  7  2  0  0  0  0
  7  8  1  0  0  0  0
  7  9  1  0  0  0  0
  9 10  1  0  0  0  0
 10 11  1  0  0  0  0
  9 12  2  0  0  0  0
 12 13  1  0  0  0  0
 12 14  1  0  0  0  0
 14  1  2  0  0  0  0
 14 15  1  0  0  0  0
  1 16  1  0  0  0  0
 16 17  2  0  0  0  0
 16 18  1  0  0  0  0
M  CHG  2  16   1  18  -1
M  END
> <ChemID>
101040

> <source_casrn>
2581-34-2

> <CAS>
2581-34-2

> <SMILES>
Cc1cc(O)ccc1[N+]([O-])=O

> <NAME>
Phenol, 3-methyl-4-nitro-

> <preferred_name>
4-Nitro-m-cresol

> <iupac>
3-Methyl-4-nitrophenol

> <MPID>
101029

> <dsstox_substance_id>
DTXSID2062535

> <Canonical_QSARr>
Cc1cc(O)ccc1[N+]([O-])=O

> <InChI_Code_QSARr>
InChI=1S/C7H7NO3/c1-5-4-6(9)2-3-7(5)8(10)11/h2-4,9H,1H3

> <InChI Key_QSARr>
PIIZYNQECPTVEO-UHFFFAOYSA-N

> <Salt_Solvent>
?

> <Ready_Biodeg>
0.0

$$$$
101044
  -INDIGO-08031722522D

 49 52  0  0  0  0  0  0  0  0999 V2000
   -2.7713    3.2001    0.0000 O   0  0  0  0  0  0  0  0  0  0  0  0
   -2.7713    4.8000    0.0000 H   0  0  0  0  0  0  0  0  0  0  0  0
   -1.3857    2.4000    0.0000 S   0  0  0  0  0  0  0  0  0  0  0  0
   -0.0001    1.6000    0.0000 C   0  0  0  0  0  0  0  0  0  0  0  0
   -0.0001    0.0001    0.0000 C   0  0  0  0  0  0  0  0  0  0  0  0
    1.3855   -0.8000    0.0000 C   0  0  0  0  0  0  0  0  0  0  0  0
    1.3855   -2.4000    0.0000 C   0  0  0  0  0  0  0  0  0  0  0  0
    2.7714   -3.1999    0.0000 H   0  0  0  0  0  0  0  0  0  0  0  0
   -0.0001   -3.1999    0.0000 C   0  0  0  0  0  0  0  0  0  0  0  0
   -0.0001   -4.8000    0.0000 H   0  0  0  0  0  0  0  0  0  0  0  0
   -1.3857   -2.4000    0.0000 C   0  0  0  0  0  0  0  0  0  0  0  0
   -2.7713   -3.2001    0.0000 O   0  0  0  0  0  0  0  0  0  0  0  0
   -2.7713   -4.8000    0.0000 H   0  0  0  0  0  0  0  0  0  0  0  0
   -1.3857   -0.8000    0.0000 C   0  0  0  0  0  0  0  0  0  0  0  0
   -2.7713   -0.0001    0.0000 N   0  0  0  0  0  0  0  0  0  0  0  0
   -4.1569   -0.8000    0.0000 N   0  0  0  0  0  0  0  0  0  0  0  0
   -5.5425   -0.0001    0.0000 C   0  0  0  0  0  0  0  0  0  0  0  0
   -6.9283   -0.8000    0.0000 C   0  0  0  0  0  0  0  0  0  0  0  0
   -8.3139   -0.0001    0.0000 C   0  0  0  0  0  0  0  0  0  0  0  0
   -9.6995   -0.8000    0.0000 C   0  0  0  0  0  0  0  0  0  0  0  0
  -11.0851   -0.0001    0.0000 H   0  0  0  0  0  0  0  0  0  0  0  0
   -9.6995   -2.4000    0.0000 C   0  0  0  0  0  0  0  0  0  0  0  0
  -11.0851   -3.2001    0.0000 H   0  0  0  0  0  0  0  0  0  0  0  0
   -8.3139   -3.1999    0.0000 C   0  0  0  0  0  0  0  0  0  0  0  0
   -8.3139   -4.8000    0.0000 H   0  0  0  0  0  0  0  0  0  0  0  0
   -6.9283   -2.4000    0.0000 C   0  0  0  0  0  0  0  0  0  0  0  0
   -5.5425   -3.2001    0.0000 H   0  0  0  0  0  0  0  0  0  0  0  0
   -8.3139    1.6000    0.0000 C   0  0  0  0  0  0  0  0  0  0  0  0
   -9.6995    2.4000    0.0000 S   0  0  0  0  0  0  0  0  0  0  0  0
   -8.8994    3.7856    0.0000 O   0  0  0  0  0  0  0  0  0  0  0  0
  -10.4994    1.0143    0.0000 O   0  0  0  0  0  0  0  0  0  0  0  0
  -11.0851    3.2001    0.0000 O   0  0  0  0  0  0  0  0  0  0  0  0
  -11.0851    4.8000    0.0000 H   0  0  0  0  0  0  0  0  0  0  0  0
   -6.9283    2.4000    0.0000 C   0  0  0  0  0  0  0  0  0  0  0  0
   -6.9283    4.0000    0.0000 H   0  0  0  0  0  0  0  0  0  0  0  0
   -5.5425    1.6000    0.0000 C   0  0  0  0  0  0  0  0  0  0  0  0
   -4.1569    2.4000    0.0000 H   0  0  0  0  0  0  0  0  0  0  0  0
    2.7714    0.0001    0.0000 C   0  0  0  0  0  0  0  0  0  0  0  0
    4.1570   -0.8000    0.0000 H   0  0  0  0  0  0  0  0  0  0  0  0
    2.7714    1.6000    0.0000 C   0  0  0  0  0  0  0  0  0  0  0  0
    4.1570    2.4000    0.0000 S   0  0  0  0  0  0  0  0  0  0  0  0
    4.9569    1.0143    0.0000 O   0  0  0  0  0  0  0  0  0  0  0  0
    3.3569    3.7856    0.0000 O   0  0  0  0  0  0  0  0  0  0  0  0
    5.5426    3.2001    0.0000 O   0  0  0  0  0  0  0  0  0  0  0  0
    6.9282    2.4000    0.0000 H   0  0  0  0  0  0  0  0  0  0  0  0
    1.3855    2.4000    0.0000 C   0  0  0  0  0  0  0  0  0  0  0  0
    1.3855    4.0000    0.0000 H   0  0  0  0  0  0  0  0  0  0  0  0
   -0.5855    3.7856    0.0000 O   0  0  0  0  0  0  0  0  0  0  0  0
   -2.1855    1.0143    0.0000 O   0  0  0  0  0  0  0  0  0  0  0  0
  1  2  1  0  0  0  0
  1  3  1  0  0  0  0
  3  4  1  0  0  0  0
  4  5  1  0  0  0  0
  5  6  1  0  0  0  0
  6  7  2  0  0  0  0
  7  8  1  0  0  0  0
  7  9  1  0  0  0  0
  9 10  1  0  0  0  0
  9 11  2  0  0  0  0
 11 12  1  0  0  0  0
 12 13  1  0  0  0  0
 11 14  1  0  0  0  0
 14  5  2  0  0  0  0
 14 15  1  0  0  0  0
 15 16  2  0  0  0  0
 16 17  1  0  0  0  0
 17 18  1  0  0  0  0
 18 19  1  0  0  0  0
 19 20  2  0  0  0  0
 20 21  1  0  0  0  0
 20 22  1  0  0  0  0
 22 23  1  0  0  0  0
 22 24  2  0  0  0  0
 24 25  1  0  0  0  0
 24 26  1  0  0  0  0
 26 18  2  0  0  0  0
 26 27  1  0  0  0  0
 19 28  1  0  0  0  0
 28 29  1  0  0  0  0
 29 30  2  0  0  0  0
 29 31  2  0  0  0  0
 29 32  1  0  0  0  0
 32 33  1  0  0  0  0
 28 34  2  0  0  0  0
 34 35  1  0  0  0  0
 34 36  1  0  0  0  0
 36 17  2  0  0  0  0
 36 37  1  0  0  0  0
  6 38  1  0  0  0  0
 38 39  1  0  0  0  0
 38 40  2  0  0  0  0
 40 41  1  0  0  0  0
 41 42  2  0  0  0  0
 41 43  2  0  0  0  0
 41 44  1  0  0  0  0
 44 45  1  0  0  0  0
 40 46  1  0  0  0  0
 46  4  2  0  0  0  0
 46 47  1  0  0  0  0
  3 48  2  0  0  0  0
  3 49  2  0  0  0  0
M  END
> <ChemID>
101044

> <source_casrn>
2611-82-7

> <CAS>
2611-82-7

> <SMILES>
[Na+].[Na+].[Na+].[O-]S(=O)(=O)c1cc(c2c(/N=N\c3ccc(c4ccccc34)S([O-])(=O)=O)c(O)ccc2c1)S([O-])(=O)=O

> <NAME>
ACID RED 18

> <preferred_name>
SX purple

> <iupac>
trisodium 7-hydroxy-8-[(Z)-(4-sulfonatonaphthalen-1-yl)diazenyl]naphthalene-1,3-disulfonate

> <MPID>
101033

> <dsstox_substance_id>
DTXSID9021213

> <Canonical_QSARr>
Oc1ccc2cc(cc(c2c1N=Nc1ccc(c2ccccc12)S(O)(=O)=O)S(O)(=O)=O)S(O)(=O)=O

> <InChI_Code_QSARr>
InChI=1S/C20H14N2O10S3/c23-16-7-5-11-9-12(33(24,25)26)10-18(35(30,31)32)19(11)20(16)22-21-15-6-8-17(34(27,28)29)14-4-2-1-3-13(14)15/h1-10,23H,(H,24,25,26)(H,27,28,29)(H,30,31,32)/b22-21+

> <InChI Key_QSARr>
JZGWEIPJUAIDHM-QURGRASLSA-N

> <Salt_Solvent>
[Na+].[Na+].[Na+]

> <Ready_Biodeg>
0.0

$$$$
101045
  -INDIGO-08031722522D

 44 43  0  0  0  0  0  0  0  0999 V2000
   -9.6994    0.8000    0.0000 P   0  0  0  0  0  0  0  0  0  0  0  0
   -9.6994    2.4000    0.0000 O   0  0  0  0  0  0  0  0  0  0  0  0
   -8.3138    0.0000    0.0000 O   0  0  0  0  0  0  0  0  0  0  0  0
   -6.9281    0.8000    0.0000 C   0  0  0  0  0  0  0  0  0  0  0  0
   -7.5404    2.2782    0.0000 H   0  0  0  0  0  0  0  0  0  0  0  0
   -6.3158    2.2782    0.0000 H   0  0  0  0  0  0  0  0  0  0  0  0
   -5.5425    0.0000    0.0000 C   0  0  0  0  0  0  0  0  0  0  0  0
   -4.9301   -1.4782    0.0000 H   0  0  0  0  0  0  0  0  0  0  0  0
   -6.1548   -1.4782    0.0000 H   0  0  0  0  0  0  0  0  0  0  0  0
   -4.1568    0.8000    0.0000 C   0  0  0  0  0  0  0  0  0  0  0  0
   -4.7691    2.2782    0.0000 H   0  0  0  0  0  0  0  0  0  0  0  0
   -3.5445    2.2782    0.0000 H   0  0  0  0  0  0  0  0  0  0  0  0
   -2.7711    0.0000    0.0000 C   0  0  0  0  0  0  0  0  0  0  0  0
   -2.1592   -1.4782    0.0000 H   0  0  0  0  0  0  0  0  0  0  0  0
   -3.3834   -1.4782    0.0000 H   0  0  0  0  0  0  0  0  0  0  0  0
   -1.3855    0.8000    0.0000 C   0  0  0  0  0  0  0  0  0  0  0  0
   -1.9978    2.2782    0.0000 H   0  0  0  0  0  0  0  0  0  0  0  0
   -0.7735    2.2782    0.0000 H   0  0  0  0  0  0  0  0  0  0  0  0
   -0.0001    0.0000    0.0000 C   0  0  0  0  0  0  0  0  0  0  0  0
    0.6122   -1.4782    0.0000 H   0  0  0  0  0  0  0  0  0  0  0  0
   -0.6121   -1.4782    0.0000 H   0  0  0  0  0  0  0  0  0  0  0  0
    1.3855    0.8000    0.0000 C   0  0  0  0  0  0  0  0  0  0  0  0
    0.7732    2.2782    0.0000 H   0  0  0  0  0  0  0  0  0  0  0  0
    1.9978    2.2782    0.0000 H   0  0  0  0  0  0  0  0  0  0  0  0
    2.7712    0.0000    0.0000 C   0  0  0  0  0  0  0  0  0  0  0  0
    3.3835   -1.4782    0.0000 H   0  0  0  0  0  0  0  0  0  0  0  0
    2.1589   -1.4782    0.0000 H   0  0  0  0  0  0  0  0  0  0  0  0
    4.1568    0.8000    0.0000 C   0  0  0  0  0  0  0  0  0  0  0  0
    3.5445    2.2782    0.0000 H   0  0  0  0  0  0  0  0  0  0  0  0
    4.7692    2.2782    0.0000 H   0  0  0  0  0  0  0  0  0  0  0  0
    5.5425    0.0000    0.0000 C   0  0  0  0  0  0  0  0  0  0  0  0
    6.1548   -1.4782    0.0000 H   0  0  0  0  0  0  0  0  0  0  0  0
    4.9302   -1.4782    0.0000 H   0  0  0  0  0  0  0  0  0  0  0  0
    6.9282    0.8000    0.0000 C   0  0  0  0  0  0  0  0  0  0  0  0
    6.3158    2.2782    0.0000 H   0  0  0  0  0  0  0  0  0  0  0  0
    7.5405    2.2782    0.0000 H   0  0  0  0  0  0  0  0  0  0  0  0
    8.3138    0.0000    0.0000 C   0  0  0  0  0  0  0  0  0  0  0  0
    9.6995   -0.8000    0.0000 H   0  0  0  0  0  0  0  0  0  0  0  0
    9.6995    0.8000    0.0000 H   0  0  0  0  0  0  0  0  0  0  0  0
    8.3138   -1.6000    0.0000 H   0  0  0  0  0  0  0  0  0  0  0  0
  -11.0851    1.6000    0.0000 O   0  0  0  0  0  0  0  0  0  0  0  0
  -12.4708    0.8000    0.0000 H   0  0  0  0  0  0  0  0  0  0  0  0
  -11.0851    0.0000    0.0000 O   0  0  0  0  0  0  0  0  0  0  0  0
  -11.0851   -1.6000    0.0000 H   0  0  0  0  0  0  0  0  0  0  0  0
  1  2  2  0  0  0  0
  1  3  1  0  0  0  0
  3  4  1  0  0  0  0
  4  5  1  0  0  0  0
  4  6  1  0  0  0  0
  4  7  1  0  0  0  0
  7  8  1  0  0  0  0
  7  9  1  0  0  0  0
  7 10  1  0  0  0  0
 10 11  1  0  0  0  0
 10 12  1  0  0  0  0
 10 13  1  0  0  0  0
 13 14  1  0  0  0  0
 13 15  1  0  0  0  0
 13 16  1  0  0  0  0
 16 17  1  0  0  0  0
 16 18  1  0  0  0  0
 16 19  1  0  0  0  0
 19 20  1  0  0  0  0
 19 21  1  0  0  0  0
 19 22  1  0  0  0  0
 22 23  1  0  0  0  0
 22 24  1  0  0  0  0
 22 25  1  0  0  0  0
 25 26  1  0  0  0  0
 25 27  1  0  0  0  0
 25 28  1  0  0  0  0
 28 29  1  0  0  0  0
 28 30  1  0  0  0  0
 28 31  1  0  0  0  0
 31 32  1  0  0  0  0
 31 33  1  0  0  0  0
 31 34  1  0  0  0  0
 34 35  1  0  0  0  0
 34 36  1  0  0  0  0
 34 37  1  0  0  0  0
 37 38  1  0  0  0  0
 37 39  1  0  0  0  0
 37 40  1  0  0  0  0
  1 41  1  0  0  0  0
 41 42  1  0  0  0  0
  1 43  1  0  0  0  0
 43 44  1  0  0  0  0
M  END
> <ChemID>
101045

> <source_casrn>
2627-35-2

> <CAS>
12751-23-4

> <SMILES>
O=P(OCCCCCCCCCCCC)(O)O

> <NAME>
Phosphoric acid, monododecyl ester

> <preferred_name>
Dodecyl dihydrogen phosphate

> <iupac>
dodecyl dihydrogen phosphate

> <MPID>
101034

> <dsstox_substance_id>
DTXSID9044530

> <Canonical_QSARr>
CCCCCCCCCCCCOP(O)(O)=O

> <InChI_Code_QSARr>
InChI=1S/C12H27O4P/c1-2-3-4-5-6-7-8-9-10-11-12-16-17(13,14)15/h2-12H2,1H3,(H2,13,14,15)

> <InChI Key_QSARr>
TVACALAUIQMRDF-UHFFFAOYSA-N

> <Salt_Solvent>
?

> <Ready_Biodeg>
1.0

$$$$
101049
  -INDIGO-08031722522D

 47 48  0  0  0  0  0  0  0  0999 V2000
    3.2000    2.7713    0.0000 C   0  0  0  0  0  0  0  0  0  0  0  0
    4.8001    2.7713    0.0000 C   0  0  0  0  0  0  0  0  0  0  0  0
    5.6001    1.3856    0.0000 C   0  0  0  0  0  0  0  0  0  0  0  0
    4.8001    0.0001    0.0000 H   0  0  0  0  0  0  0  0  0  0  0  0
    7.1999    1.3856    0.0000 C   0  0  0  0  0  0  0  0  0  0  0  0
    8.0000    0.0001    0.0000 H   0  0  0  0  0  0  0  0  0  0  0  0
    8.0000    2.7713    0.0000 C   0  0  0  0  0  0  0  0  0  0  0  0
    9.6000    2.7713    0.0000 H   0  0  0  0  0  0  0  0  0  0  0  0
    7.1999    4.1568    0.0000 C   0  0  0  0  0  0  0  0  0  0  0  0
    8.0000    5.5425    0.0000 H   0  0  0  0  0  0  0  0  0  0  0  0
    5.6001    4.1568    0.0000 C   0  0  0  0  0  0  0  0  0  0  0  0
    4.8001    5.5425    0.0000 H   0  0  0  0  0  0  0  0  0  0  0  0
    2.4000    4.1570    0.0000 C   0  0  0  0  0  0  0  0  0  0  0  0
    3.2000    5.5425    0.0000 H   0  0  0  0  0  0  0  0  0  0  0  0
    0.7999    4.1570    0.0000 C   0  0  0  0  0  0  0  0  0  0  0  0
   -0.0001    5.5425    0.0000 C   0  0  0  0  0  0  0  0  0  0  0  0
   -0.5472    7.0461    0.0000 C   0  0  0  0  0  0  0  0  0  0  0  0
   -1.0945    8.5496    0.0000 H   0  0  0  0  0  0  0  0  0  0  0  0
    0.2528    8.4318    0.0000 H   0  0  0  0  0  0  0  0  0  0  0  0
   -2.0508    7.5933    0.0000 H   0  0  0  0  0  0  0  0  0  0  0  0
   -1.5035    4.9953    0.0000 C   0  0  0  0  0  0  0  0  0  0  0  0
   -2.8891    5.7953    0.0000 H   0  0  0  0  0  0  0  0  0  0  0  0
   -1.5035    6.5954    0.0000 H   0  0  0  0  0  0  0  0  0  0  0  0
   -0.2779    3.9669    0.0000 H   0  0  0  0  0  0  0  0  0  0  0  0
    1.5035    6.0897    0.0000 C   0  0  0  0  0  0  0  0  0  0  0  0
    3.0070    6.6371    0.0000 H   0  0  0  0  0  0  0  0  0  0  0  0
    1.7814    7.6655    0.0000 H   0  0  0  0  0  0  0  0  0  0  0  0
    0.4750    7.3154    0.0000 H   0  0  0  0  0  0  0  0  0  0  0  0
   -0.0001    2.7713    0.0000 C   0  0  0  0  0  0  0  0  0  0  0  0
   -1.5999    2.7713    0.0000 O   0  0  0  0  0  0  0  0  0  0  0  0
   -2.4000    4.1568    0.0000 H   0  0  0  0  0  0  0  0  0  0  0  0
    0.7999    1.3856    0.0000 C   0  0  0  0  0  0  0  0  0  0  0  0
   -0.0001    0.0001    0.0000 C   0  0  0  0  0  0  0  0  0  0  0  0
   -0.7999   -1.3856    0.0000 C   0  0  0  0  0  0  0  0  0  0  0  0
   -1.5999   -2.7713    0.0000 H   0  0  0  0  0  0  0  0  0  0  0  0
   -0.2528   -2.8891    0.0000 H   0  0  0  0  0  0  0  0  0  0  0  0
   -2.3757   -1.6635    0.0000 H   0  0  0  0  0  0  0  0  0  0  0  0
    1.3856   -0.8000    0.0000 C   0  0  0  0  0  0  0  0  0  0  0  0
    2.8892   -1.3472    0.0000 H   0  0  0  0  0  0  0  0  0  0  0  0
    1.6634   -2.3756    0.0000 H   0  0  0  0  0  0  0  0  0  0  0  0
    0.1600   -1.8284    0.0000 H   0  0  0  0  0  0  0  0  0  0  0  0
   -1.3857    0.8000    0.0000 C   0  0  0  0  0  0  0  0  0  0  0  0
   -2.6113    1.8284    0.0000 H   0  0  0  0  0  0  0  0  0  0  0  0
   -2.8891    0.2528    0.0000 H   0  0  0  0  0  0  0  0  0  0  0  0
   -1.6634   -0.7758    0.0000 H   0  0  0  0  0  0  0  0  0  0  0  0
    2.4000    1.3856    0.0000 C   0  0  0  0  0  0  0  0  0  0  0  0
    3.2000    0.0001    0.0000 H   0  0  0  0  0  0  0  0  0  0  0  0
  1  2  1  0  0  0  0
  2  3  1  0  0  0  0
  3  4  1  0  0  0  0
  3  5  2  0  0  0  0
  5  6  1  0  0  0  0
  5  7  1  0  0  0  0
  7  8  1  0  0  0  0
  7  9  2  0  0  0  0
  9 10  1  0  0  0  0
  9 11  1  0  0  0  0
 11  2  2  0  0  0  0
 11 12  1  0  0  0  0
  1 13  1  0  0  0  0
 13 14  1  0  0  0  0
 13 15  2  0  0  0  0
 15 16  1  0  0  0  0
 16 17  1  0  0  0  0
 17 18  1  0  0  0  0
 17 19  1  0  0  0  0
 17 20  1  0  0  0  0
 16 21  1  0  0  0  0
 21 22  1  0  0  0  0
 21 23  1  0  0  0  0
 21 24  1  0  0  0  0
 16 25  1  0  0  0  0
 25 26  1  0  0  0  0
 25 27  1  0  0  0  0
 25 28  1  0  0  0  0
 15 29  1  0  0  0  0
 29 30  1  0  0  0  0
 30 31  1  0  0  0  0
 29 32  2  0  0  0  0
 32 33  1  0  0  0  0
 33 34  1  0  0  0  0
 34 35  1  0  0  0  0
 34 36  1  0  0  0  0
 34 37  1  0  0  0  0
 33 38  1  0  0  0  0
 38 39  1  0  0  0  0
 38 40  1  0  0  0  0
 38 41  1  0  0  0  0
 33 42  1  0  0  0  0
 42 43  1  0  0  0  0
 42 44  1  0  0  0  0
 42 45  1  0  0  0  0
 32 46  1  0  0  0  0
 46  1  2  0  0  0  0
 46 47  1  0  0  0  0
M  END
> <ChemID>
101049

> <source_casrn>
2668-47-5

> <CAS>
2668-47-5

> <SMILES>
CC(C)(C)c1cc(cc(c1O)C(C)(C)C)-c1ccccc1

> <NAME>
1,1'-Biphenyl -4-ol, 3,5-bis(1,1-dimethylethyl)-

> <preferred_name>
[1,1'-Biphenyl]-4-ol, 3,5-bis(1,1-dimethylethyl)-

> <iupac>
2,6-ditert-butyl-4-phenylphenol

> <MPID>
101038

> <dsstox_substance_id>
DTXSID7062582

> <Canonical_QSARr>
CC(C)(C)c1cc(cc(c1O)C(C)(C)C)-c1ccccc1

> <InChI_Code_QSARr>
InChI=1S/C20H26O/c1-19(2,3)16-12-15(14-10-8-7-9-11-14)13-17(18(16)21)20(4,5)6/h7-13,21H,1-6H3

> <InChI Key_QSARr>
JIEWQZNTUPWNMX-UHFFFAOYSA-N

> <Salt_Solvent>
?

> <Ready_Biodeg>
0.0

$$$$
101053
  -INDIGO-08031722522D

 29 29  0  0  0  0  0  0  0  0999 V2000
    0.0001   -1.6000    0.0000 S   0  0  0  0  0  0  0  0  0  0  0  0
    0.0001    0.0000    0.0000 P   0  0  0  0  0  0  0  0  0  0  0  0
    1.3856    0.8000    0.0000 O   0  0  0  0  0  0  0  0  0  0  0  0
    2.7713    0.0000    0.0000 C   0  0  0  0  0  0  0  0  0  0  0  0
    2.7713   -1.6000    0.0000 N   0  0  0  0  0  0  0  0  0  0  0  0
    4.1570   -2.4001    0.0000 C   0  0  0  0  0  0  0  0  0  0  0  0
    4.1570   -4.0000    0.0000 Cl  0  0  0  0  0  0  0  0  0  0  0  0
    5.5425   -1.6000    0.0000 C   0  0  0  0  0  0  0  0  0  0  0  0
    6.9282   -2.4001    0.0000 Cl  0  0  0  0  0  0  0  0  0  0  0  0
    5.5425    0.0000    0.0000 C   0  0  0  0  0  0  0  0  0  0  0  0
    6.9282    0.8000    0.0000 H   0  0  0  0  0  0  0  0  0  0  0  0
    4.1570    0.8000    0.0000 C   0  0  0  0  0  0  0  0  0  0  0  0
    4.1570    2.4000    0.0000 Cl  0  0  0  0  0  0  0  0  0  0  0  0
   -1.3856   -0.8000    0.0000 O   0  0  0  0  0  0  0  0  0  0  0  0
   -2.7713    0.0000    0.0000 C   0  0  0  0  0  0  0  0  0  0  0  0
   -3.3835    1.4782    0.0000 H   0  0  0  0  0  0  0  0  0  0  0  0
   -2.1590    1.4782    0.0000 H   0  0  0  0  0  0  0  0  0  0  0  0
   -4.1569   -0.8000    0.0000 C   0  0  0  0  0  0  0  0  0  0  0  0
   -5.5426   -1.6000    0.0000 H   0  0  0  0  0  0  0  0  0  0  0  0
   -5.5426    0.0000    0.0000 H   0  0  0  0  0  0  0  0  0  0  0  0
   -4.1569   -2.4001    0.0000 H   0  0  0  0  0  0  0  0  0  0  0  0
   -1.3856    0.8000    0.0000 O   0  0  0  0  0  0  0  0  0  0  0  0
   -1.3856    2.4000    0.0000 C   0  0  0  0  0  0  0  0  0  0  0  0
   -0.4115    3.6694    0.0000 H   0  0  0  0  0  0  0  0  0  0  0  0
    0.2006    2.6088    0.0000 H   0  0  0  0  0  0  0  0  0  0  0  0
   -2.7713    3.2001    0.0000 C   0  0  0  0  0  0  0  0  0  0  0  0
   -2.7713    4.8000    0.0000 H   0  0  0  0  0  0  0  0  0  0  0  0
   -4.1569    4.0000    0.0000 H   0  0  0  0  0  0  0  0  0  0  0  0
   -4.1569    2.4000    0.0000 H   0  0  0  0  0  0  0  0  0  0  0  0
  1  2  2  0  0  0  0
  2  3  1  0  0  0  0
  3  4  1  0  0  0  0
  4  5  1  0  0  0  0
  5  6  2  0  0  0  0
  6  7  1  0  0  0  0
  6  8  1  0  0  0  0
  8  9  1  0  0  0  0
  8 10  2  0  0  0  0
 10 11  1  0  0  0  0
 10 12  1  0  0  0  0
 12  4  2  0  0  0  0
 12 13  1  0  0  0  0
  2 14  1  0  0  0  0
 14 15  1  0  0  0  0
 15 16  1  0  0  0  0
 15 17  1  0  0  0  0
 15 18  1  0  0  0  0
 18 19  1  0  0  0  0
 18 20  1  0  0  0  0
 18 21  1  0  0  0  0
  2 22  1  0  0  0  0
 22 23  1  0  0  0  0
 23 24  1  0  0  0  0
 23 25  1  0  0  0  0
 23 26  1  0  0  0  0
 26 27  1  0  0  0  0
 26 28  1  0  0  0  0
 26 29  1  0  0  0  0
M  END
> <ChemID>
101053

> <source_casrn>
2921-88-2

> <CAS>
2921-88-2

> <SMILES>
CCOP(=S)(Oc1[n]c(Cl)c(Cl)cc1Cl)OCC

> <NAME>
Chlorpyrifos

> <preferred_name>
Chlorpyrifos

> <iupac>
O,O-diethyl O-(3,5,6-trichloropyridin-2-yl) phosphorothioate

> <MPID>
101042

> <dsstox_substance_id>
DTXSID4020458

> <Canonical_QSARr>
CCOP(=S)(Oc1[n]c(Cl)c(Cl)cc1Cl)OCC

> <InChI_Code_QSARr>
InChI=1S/C9H11Cl3NO3PS/c1-3-14-17(18,15-4-2)16-9-7(11)5-6(10)8(12)13-9/h5H,3-4H2,1-2H3

> <InChI Key_QSARr>
SBPBAQFWLVIOKP-UHFFFAOYSA-N

> <Salt_Solvent>
?

> <Ready_Biodeg>
0.0

$$$$
101057
  -INDIGO-08031722522D

 41 40  0  0  0  0  0  0  0  0999 V2000
    5.2646   -1.5757    0.0000 O   0  0  0  0  0  0  0  0  0  0  0  0
    5.5425    0.0001    0.0000 C   0  0  0  0  0  0  0  0  0  0  0  0
    7.0461    0.5472    0.0000 N   0  0  0  0  0  0  0  0  0  0  0  0
    8.2717   -0.4813    0.0000 C   0  0  0  0  0  0  0  0  0  0  0  0
    9.8703   -0.5510    0.0000 H   0  0  0  0  0  0  0  0  0  0  0  0
    9.4513    0.5997    0.0000 H   0  0  0  0  0  0  0  0  0  0  0  0
    7.9938   -2.0569    0.0000 C   0  0  0  0  0  0  0  0  0  0  0  0
    6.3954   -1.9872    0.0000 H   0  0  0  0  0  0  0  0  0  0  0  0
    6.8142   -3.1378    0.0000 H   0  0  0  0  0  0  0  0  0  0  0  0
    9.2196   -3.0854    0.0000 O   0  0  0  0  0  0  0  0  0  0  0  0
    8.9417   -4.6611    0.0000 H   0  0  0  0  0  0  0  0  0  0  0  0
    7.3240    2.1229    0.0000 C   0  0  0  0  0  0  0  0  0  0  0  0
    5.7979    2.6041    0.0000 H   0  0  0  0  0  0  0  0  0  0  0  0
    6.5851    3.5422    0.0000 H   0  0  0  0  0  0  0  0  0  0  0  0
    8.8274    2.6702    0.0000 C   0  0  0  0  0  0  0  0  0  0  0  0
    9.6871    4.0196    0.0000 H   0  0  0  0  0  0  0  0  0  0  0  0
    8.4812    4.2322    0.0000 H   0  0  0  0  0  0  0  0  0  0  0  0
   10.0532    1.6417    0.0000 O   0  0  0  0  0  0  0  0  0  0  0  0
   11.5566    2.1889    0.0000 H   0  0  0  0  0  0  0  0  0  0  0  0
    4.1570    0.8000    0.0000 C   0  0  0  0  0  0  0  0  0  0  0  0
    3.5446    2.2782    0.0000 H   0  0  0  0  0  0  0  0  0  0  0  0
    4.7691    2.2782    0.0000 H   0  0  0  0  0  0  0  0  0  0  0  0
    2.7713    0.0001    0.0000 C   0  0  0  0  0  0  0  0  0  0  0  0
    3.3837   -1.4782    0.0000 H   0  0  0  0  0  0  0  0  0  0  0  0
    2.1589   -1.4782    0.0000 H   0  0  0  0  0  0  0  0  0  0  0  0
    1.3856    0.8000    0.0000 C   0  0  0  0  0  0  0  0  0  0  0  0
    0.7734    2.2782    0.0000 H   0  0  0  0  0  0  0  0  0  0  0  0
    1.9979    2.2782    0.0000 H   0  0  0  0  0  0  0  0  0  0  0  0
    0.0001    0.0001    0.0000 C   0  0  0  0  0  0  0  0  0  0  0  0
    0.6122   -1.4782    0.0000 H   0  0  0  0  0  0  0  0  0  0  0  0
   -0.6123   -1.4782    0.0000 H   0  0  0  0  0  0  0  0  0  0  0  0
   -1.3856    0.8000    0.0000 C   0  0  0  0  0  0  0  0  0  0  0  0
   -1.9980    2.2782    0.0000 H   0  0  0  0  0  0  0  0  0  0  0  0
   -0.7733    2.2782    0.0000 H   0  0  0  0  0  0  0  0  0  0  0  0
   -2.7714    0.0001    0.0000 C   0  0  0  0  0  0  0  0  0  0  0  0
   -2.1590   -1.4782    0.0000 H   0  0  0  0  0  0  0  0  0  0  0  0
   -3.3835   -1.4782    0.0000 H   0  0  0  0  0  0  0  0  0  0  0  0
   -4.1568    0.8000    0.0000 C   0  0  0  0  0  0  0  0  0  0  0  0
   -5.5426    1.6000    0.0000 H   0  0  0  0  0  0  0  0  0  0  0  0
   -5.5426    0.0001    0.0000 H   0  0  0  0  0  0  0  0  0  0  0  0
   -4.1568    2.4000    0.0000 H   0  0  0  0  0  0  0  0  0  0  0  0
  1  2  2  0  0  0  0
  2  3  1  0  0  0  0
  3  4  1  0  0  0  0
  4  5  1  0  0  0  0
  4  6  1  0  0  0  0
  4  7  1  0  0  0  0
  7  8  1  0  0  0  0
  7  9  1  0  0  0  0
  7 10  1  0  0  0  0
 10 11  1  0  0  0  0
  3 12  1  0  0  0  0
 12 13  1  0  0  0  0
 12 14  1  0  0  0  0
 12 15  1  0  0  0  0
 15 16  1  0  0  0  0
 15 17  1  0  0  0  0
 15 18  1  0  0  0  0
 18 19  1  0  0  0  0
  2 20  1  0  0  0  0
 20 21  1  0  0  0  0
 20 22  1  0  0  0  0
 20 23  1  0  0  0  0
 23 24  1  0  0  0  0
 23 25  1  0  0  0  0
 23 26  1  0  0  0  0
 26 27  1  0  0  0  0
 26 28  1  0  0  0  0
 26 29  1  0  0  0  0
 29 30  1  0  0  0  0
 29 31  1  0  0  0  0
 29 32  1  0  0  0  0
 32 33  1  0  0  0  0
 32 34  1  0  0  0  0
 32 35  1  0  0  0  0
 35 36  1  0  0  0  0
 35 37  1  0  0  0  0
 35 38  1  0  0  0  0
 38 39  1  0  0  0  0
 38 40  1  0  0  0  0
 38 41  1  0  0  0  0
M  END
> <ChemID>
101057

> <source_casrn>
3077-30-3

> <CAS>
3077-30-3

> <SMILES>
CCCCCCCC(=O)N(CCO)CCO

> <NAME>
Octanamide, N,N-bis(2-hydroxyethyl)-

> <preferred_name>
Octanamide, N,N-bis(2-hydroxyethyl)-

> <iupac>
N,N-Bis(2-hydroxyethyl)octanamide

> <MPID>
101046

> <dsstox_substance_id>
DTXSID6062832

> <Canonical_QSARr>
CCCCCCCC(=O)N(CCO)CCO

> <InChI_Code_QSARr>
InChI=1S/C12H25NO3/c1-2-3-4-5-6-7-12(16)13(8-10-14)9-11-15/h14-15H,2-11H2,1H3

> <InChI Key_QSARr>
FZQAYFWUOCXLKJ-UHFFFAOYSA-N

> <Salt_Solvent>
?

> <Ready_Biodeg>
1.0

$$$$
101062
  -INDIGO-08031722522D

 50 49  0  0  0  0  0  0  0  0999 V2000
    0.0001    0.0001    0.0000 C   0  0  0  0  0  0  0  0  0  0  0  0
    0.8000   -1.3856    0.0000 C   0  0  0  0  0  0  0  0  0  0  0  0
    2.2781   -1.9980    0.0000 H   0  0  0  0  0  0  0  0  0  0  0  0
    2.2781   -0.7733    0.0000 H   0  0  0  0  0  0  0  0  0  0  0  0
    0.2528   -2.8891    0.0000 C   0  0  0  0  0  0  0  0  0  0  0  0
   -0.2944   -4.3927    0.0000 H   0  0  0  0  0  0  0  0  0  0  0  0
    1.2813   -4.1149    0.0000 H   0  0  0  0  0  0  0  0  0  0  0  0
   -1.3230   -3.1669    0.0000 H   0  0  0  0  0  0  0  0  0  0  0  0
   -0.8000    1.3856    0.0000 C   0  0  0  0  0  0  0  0  0  0  0  0
   -2.2781    1.9979    0.0000 H   0  0  0  0  0  0  0  0  0  0  0  0
   -2.2781    0.7734    0.0000 H   0  0  0  0  0  0  0  0  0  0  0  0
   -0.2528    2.8891    0.0000 O   0  0  0  0  0  0  0  0  0  0  0  0
   -1.2813    4.1148    0.0000 C   0  0  0  0  0  0  0  0  0  0  0  0
   -0.7341    5.6183    0.0000 C   0  0  0  0  0  0  0  0  0  0  0  0
    0.8418    5.8961    0.0000 C   0  0  0  0  0  0  0  0  0  0  0  0
    1.3890    7.3996    0.0000 H   0  0  0  0  0  0  0  0  0  0  0  0
    1.8702    4.6706    0.0000 H   0  0  0  0  0  0  0  0  0  0  0  0
   -1.7625    6.8440    0.0000 C   0  0  0  0  0  0  0  0  0  0  0  0
   -2.7909    8.0697    0.0000 H   0  0  0  0  0  0  0  0  0  0  0  0
   -1.2153    8.3475    0.0000 H   0  0  0  0  0  0  0  0  0  0  0  0
   -3.3381    6.5662    0.0000 H   0  0  0  0  0  0  0  0  0  0  0  0
   -2.8569    3.8370    0.0000 O   0  0  0  0  0  0  0  0  0  0  0  0
   -1.3857   -0.7999    0.0000 C   0  0  0  0  0  0  0  0  0  0  0  0
   -1.9979   -2.2781    0.0000 H   0  0  0  0  0  0  0  0  0  0  0  0
   -0.7733   -2.2781    0.0000 H   0  0  0  0  0  0  0  0  0  0  0  0
   -2.8892   -0.2529    0.0000 O   0  0  0  0  0  0  0  0  0  0  0  0
   -4.1148   -1.2812    0.0000 C   0  0  0  0  0  0  0  0  0  0  0  0
   -5.6184   -0.7340    0.0000 C   0  0  0  0  0  0  0  0  0  0  0  0
   -5.8961    0.8416    0.0000 C   0  0  0  0  0  0  0  0  0  0  0  0
   -7.3996    1.3889    0.0000 H   0  0  0  0  0  0  0  0  0  0  0  0
   -4.6705    1.8702    0.0000 H   0  0  0  0  0  0  0  0  0  0  0  0
   -6.8440   -1.7624    0.0000 C   0  0  0  0  0  0  0  0  0  0  0  0
   -8.0696   -2.7910    0.0000 H   0  0  0  0  0  0  0  0  0  0  0  0
   -8.3475   -1.2151    0.0000 H   0  0  0  0  0  0  0  0  0  0  0  0
   -6.5660   -3.3382    0.0000 H   0  0  0  0  0  0  0  0  0  0  0  0
   -3.8369   -2.8569    0.0000 O   0  0  0  0  0  0  0  0  0  0  0  0
    1.3857    0.8000    0.0000 C   0  0  0  0  0  0  0  0  0  0  0  0
    1.9979    2.2783    0.0000 H   0  0  0  0  0  0  0  0  0  0  0  0
    0.7733    2.2783    0.0000 H   0  0  0  0  0  0  0  0  0  0  0  0
    2.8892    0.2528    0.0000 O   0  0  0  0  0  0  0  0  0  0  0  0
    4.1148    1.2812    0.0000 C   0  0  0  0  0  0  0  0  0  0  0  0
    5.6184    0.7339    0.0000 C   0  0  0  0  0  0  0  0  0  0  0  0
    5.8961   -0.8417    0.0000 C   0  0  0  0  0  0  0  0  0  0  0  0
    7.3996   -1.3889    0.0000 H   0  0  0  0  0  0  0  0  0  0  0  0
    4.6705   -1.8701    0.0000 H   0  0  0  0  0  0  0  0  0  0  0  0
    6.8440    1.7625    0.0000 C   0  0  0  0  0  0  0  0  0  0  0  0
    8.0696    2.7909    0.0000 H   0  0  0  0  0  0  0  0  0  0  0  0
    8.3475    1.2153    0.0000 H   0  0  0  0  0  0  0  0  0  0  0  0
    6.5660    3.3381    0.0000 H   0  0  0  0  0  0  0  0  0  0  0  0
    3.8369    2.8570    0.0000 O   0  0  0  0  0  0  0  0  0  0  0  0
  1  2  1  0  0  0  0
  2  3  1  0  0  0  0
  2  4  1  0  0  0  0
  2  5  1  0  0  0  0
  5  6  1  0  0  0  0
  5  7  1  0  0  0  0
  5  8  1  0  0  0  0
  1  9  1  0  0  0  0
  9 10  1  0  0  0  0
  9 11  1  0  0  0  0
  9 12  1  0  0  0  0
 12 13  1  0  0  0  0
 13 14  1  0  0  0  0
 14 15  2  0  0  0  0
 15 16  1  0  0  0  0
 15 17  1  0  0  0  0
 14 18  1  0  0  0  0
 18 19  1  0  0  0  0
 18 20  1  0  0  0  0
 18 21  1  0  0  0  0
 13 22  2  0  0  0  0
  1 23  1  0  0  0  0
 23 24  1  0  0  0  0
 23 25  1  0  0  0  0
 23 26  1  0  0  0  0
 26 27  1  0  0  0  0
 27 28  1  0  0  0  0
 28 29  2  0  0  0  0
 29 30  1  0  0  0  0
 29 31  1  0  0  0  0
 28 32  1  0  0  0  0
 32 33  1  0  0  0  0
 32 34  1  0  0  0  0
 32 35  1  0  0  0  0
 27 36  2  0  0  0  0
  1 37  1  0  0  0  0
 37 38  1  0  0  0  0
 37 39  1  0  0  0  0
 37 40  1  0  0  0  0
 40 41  1  0  0  0  0
 41 42  1  0  0  0  0
 42 43  2  0  0  0  0
 43 44  1  0  0  0  0
 43 45  1  0  0  0  0
 42 46  1  0  0  0  0
 46 47  1  0  0  0  0
 46 48  1  0  0  0  0
 46 49  1  0  0  0  0
 41 50  2  0  0  0  0
M  END
> <ChemID>
101062

> <source_casrn>
3290-92-4

> <CAS>
3290-92-4

> <SMILES>
O=C(OCC(CC)(COC(=O)C(=C)C)COC(=O)C(=C)C)C(=C)C

> <NAME>
2-Propenoic acid, 2-methyl-, 2-ethyl-2-  (2-methyl-1-oxo-2-propenyl)o

> <preferred_name>
Trimethylolpropane trimethacrylate

> <iupac>
2,2-bis{[(2-methylacryloyl)oxy]methyl}butyl 2-methylprop-2-enoate

> <MPID>
101050

> <dsstox_substance_id>
DTXSID3027530

> <Canonical_QSARr>
CCC(COC(=O)C(C)=C)(COC(=O)C(C)=C)COC(=O)C(C)=C

> <InChI_Code_QSARr>
InChI=1S/C18H26O6/c1-8-18(9-22-15(19)12(2)3,10-23-16(20)13(4)5)11-24-17(21)14(6)7/h2,4,6,8-11H2,1,3,5,7H3

> <InChI Key_QSARr>
OKKRPWIIYQTPQF-UHFFFAOYSA-N

> <Salt_Solvent>
?

> <Ready_Biodeg>
1.0

$$$$
101066
  -INDIGO-08031722522D

 61 60  0  0  0  0  0  0  0  0999 V2000
   11.0853    1.6000    0.0000 O   0  0  0  0  0  0  0  0  0  0  0  0
   11.0853    0.0000    0.0000 C   0  0  0  0  0  0  0  0  0  0  0  0
   12.4706   -0.8000    0.0000 N   0  0  0  0  0  0  0  0  0  0  0  0
   12.4706   -2.4000    0.0000 H   0  0  0  0  0  0  0  0  0  0  0  0
   13.8563    0.0000    0.0000 C   0  0  0  0  0  0  0  0  0  0  0  0
   14.4689    1.4782    0.0000 H   0  0  0  0  0  0  0  0  0  0  0  0
   13.2441    1.4782    0.0000 H   0  0  0  0  0  0  0  0  0  0  0  0
   15.2420   -0.8000    0.0000 O   0  0  0  0  0  0  0  0  0  0  0  0
   16.6277    0.0000    0.0000 H   0  0  0  0  0  0  0  0  0  0  0  0
    9.6996   -0.8000    0.0000 C   0  0  0  0  0  0  0  0  0  0  0  0
    9.0870   -2.2782    0.0000 H   0  0  0  0  0  0  0  0  0  0  0  0
   10.3118   -2.2782    0.0000 H   0  0  0  0  0  0  0  0  0  0  0  0
    8.3139    0.0000    0.0000 C   0  0  0  0  0  0  0  0  0  0  0  0
    8.9261    1.4782    0.0000 H   0  0  0  0  0  0  0  0  0  0  0  0
    7.7018    1.4782    0.0000 H   0  0  0  0  0  0  0  0  0  0  0  0
    6.9282   -0.8000    0.0000 C   0  0  0  0  0  0  0  0  0  0  0  0
    6.3161   -2.2782    0.0000 H   0  0  0  0  0  0  0  0  0  0  0  0
    7.5404   -2.2782    0.0000 H   0  0  0  0  0  0  0  0  0  0  0  0
    5.5425    0.0000    0.0000 C   0  0  0  0  0  0  0  0  0  0  0  0
    6.1547    1.4782    0.0000 H   0  0  0  0  0  0  0  0  0  0  0  0
    4.9304    1.4782    0.0000 H   0  0  0  0  0  0  0  0  0  0  0  0
    4.1568   -0.8000    0.0000 C   0  0  0  0  0  0  0  0  0  0  0  0
    3.5447   -2.2782    0.0000 H   0  0  0  0  0  0  0  0  0  0  0  0
    4.7694   -2.2782    0.0000 H   0  0  0  0  0  0  0  0  0  0  0  0
    2.7711    0.0000    0.0000 C   0  0  0  0  0  0  0  0  0  0  0  0
    3.3837    1.4782    0.0000 H   0  0  0  0  0  0  0  0  0  0  0  0
    2.1590    1.4782    0.0000 H   0  0  0  0  0  0  0  0  0  0  0  0
    1.3854   -0.8000    0.0000 C   0  0  0  0  0  0  0  0  0  0  0  0
    0.7733   -2.2782    0.0000 H   0  0  0  0  0  0  0  0  0  0  0  0
    1.9980   -2.2782    0.0000 H   0  0  0  0  0  0  0  0  0  0  0  0
    0.0002    0.0000    0.0000 C   0  0  0  0  0  0  0  0  0  0  0  0
    0.6123    1.4782    0.0000 H   0  0  0  0  0  0  0  0  0  0  0  0
   -0.6124    1.4782    0.0000 H   0  0  0  0  0  0  0  0  0  0  0  0
   -1.3855   -0.8000    0.0000 C   0  0  0  0  0  0  0  0  0  0  0  0
   -1.9981   -2.2782    0.0000 H   0  0  0  0  0  0  0  0  0  0  0  0
   -0.7734   -2.2782    0.0000 H   0  0  0  0  0  0  0  0  0  0  0  0
   -2.7712    0.0000    0.0000 C   0  0  0  0  0  0  0  0  0  0  0  0
   -2.1591    1.4782    0.0000 H   0  0  0  0  0  0  0  0  0  0  0  0
   -3.3834    1.4782    0.0000 H   0  0  0  0  0  0  0  0  0  0  0  0
   -4.1569   -0.8000    0.0000 C   0  0  0  0  0  0  0  0  0  0  0  0
   -4.7691   -2.2782    0.0000 H   0  0  0  0  0  0  0  0  0  0  0  0
   -3.5448   -2.2782    0.0000 H   0  0  0  0  0  0  0  0  0  0  0  0
   -5.5426    0.0000    0.0000 C   0  0  0  0  0  0  0  0  0  0  0  0
   -4.9305    1.4782    0.0000 H   0  0  0  0  0  0  0  0  0  0  0  0
   -6.1548    1.4782    0.0000 H   0  0  0  0  0  0  0  0  0  0  0  0
   -6.9284   -0.8000    0.0000 C   0  0  0  0  0  0  0  0  0  0  0  0
   -7.5405   -2.2782    0.0000 H   0  0  0  0  0  0  0  0  0  0  0  0
   -6.3157   -2.2782    0.0000 H   0  0  0  0  0  0  0  0  0  0  0  0
   -8.3141    0.0000    0.0000 C   0  0  0  0  0  0  0  0  0  0  0  0
   -7.7014    1.4782    0.0000 H   0  0  0  0  0  0  0  0  0  0  0  0
   -8.9262    1.4782    0.0000 H   0  0  0  0  0  0  0  0  0  0  0  0
   -9.6993   -0.8000    0.0000 C   0  0  0  0  0  0  0  0  0  0  0  0
  -10.3119   -2.2782    0.0000 H   0  0  0  0  0  0  0  0  0  0  0  0
   -9.0871   -2.2782    0.0000 H   0  0  0  0  0  0  0  0  0  0  0  0
  -11.0850    0.0000    0.0000 C   0  0  0  0  0  0  0  0  0  0  0  0
  -10.4729    1.4782    0.0000 H   0  0  0  0  0  0  0  0  0  0  0  0
  -11.6976    1.4782    0.0000 H   0  0  0  0  0  0  0  0  0  0  0  0
  -12.4707   -0.8000    0.0000 C   0  0  0  0  0  0  0  0  0  0  0  0
  -13.8564   -1.6000    0.0000 H   0  0  0  0  0  0  0  0  0  0  0  0
  -13.8564    0.0000    0.0000 H   0  0  0  0  0  0  0  0  0  0  0  0
  -12.4707   -2.4000    0.0000 H   0  0  0  0  0  0  0  0  0  0  0  0
  1  2  2  0  0  0  0
  2  3  1  0  0  0  0
  3  4  1  0  0  0  0
  3  5  1  0  0  0  0
  5  6  1  0  0  0  0
  5  7  1  0  0  0  0
  5  8  1  0  0  0  0
  8  9  1  0  0  0  0
  2 10  1  0  0  0  0
 10 11  1  0  0  0  0
 10 12  1  0  0  0  0
 10 13  1  0  0  0  0
 13 14  1  0  0  0  0
 13 15  1  0  0  0  0
 13 16  1  0  0  0  0
 16 17  1  0  0  0  0
 16 18  1  0  0  0  0
 16 19  1  0  0  0  0
 19 20  1  0  0  0  0
 19 21  1  0  0  0  0
 19 22  1  0  0  0  0
 22 23  1  0  0  0  0
 22 24  1  0  0  0  0
 22 25  1  0  0  0  0
 25 26  1  0  0  0  0
 25 27  1  0  0  0  0
 25 28  1  0  0  0  0
 28 29  1  0  0  0  0
 28 30  1  0  0  0  0
 28 31  1  0  0  0  0
 31 32  1  0  0  0  0
 31 33  1  0  0  0  0
 31 34  1  0  0  0  0
 34 35  1  0  0  0  0
 34 36  1  0  0  0  0
 34 37  1  0  0  0  0
 37 38  1  0  0  0  0
 37 39  1  0  0  0  0
 37 40  1  0  0  0  0
 40 41  1  0  0  0  0
 40 42  1  0  0  0  0
 40 43  1  0  0  0  0
 43 44  1  0  0  0  0
 43 45  1  0  0  0  0
 43 46  1  0  0  0  0
 46 47  1  0  0  0  0
 46 48  1  0  0  0  0
 46 49  1  0  0  0  0
 49 50  1  0  0  0  0
 49 51  1  0  0  0  0
 49 52  1  0  0  0  0
 52 53  1  0  0  0  0
 52 54  1  0  0  0  0
 52 55  1  0  0  0  0
 55 56  1  0  0  0  0
 55 57  1  0  0  0  0
 55 58  1  0  0  0  0
 58 59  1  0  0  0  0
 58 60  1  0  0  0  0
 58 61  1  0  0  0  0
M  END
> <ChemID>
101066

> <source_casrn>
3370-35-2

> <CAS>
3370-35-2

> <SMILES>
CCCCCCCCCCCCCCCCCC(=O)NCO

> <NAME>
Octadecanamide, N-(hydroxymethyl)-

> <preferred_name>
Octadecanamide, N-(hydroxymethyl)-

> <iupac>
N-(hydroxymethyl)octadecanamide

> <MPID>
101054

> <dsstox_substance_id>
DTXSID3062998

> <Canonical_QSARr>
CCCCCCCCCCCCCCCCCC(=O)NCO

> <InChI_Code_QSARr>
InChI=1S/C19H39NO2/c1-2-3-4-5-6-7-8-9-10-11-12-13-14-15-16-17-19(22)20-18-21/h21H,2-18H2,1H3,(H,20,22)

> <InChI Key_QSARr>
JHOKTNSTUVKGJC-UHFFFAOYSA-N

> <Salt_Solvent>
?

> <Ready_Biodeg>
1.0

$$$$
101070
  -INDIGO-08031722522D

 59 58  0  0  0  0  0  0  0  0999 V2000
   -0.8000    1.3855    0.0000 Cl  0  0  0  0  0  0  0  0  0  0  0  0
    0.0001   -0.0001    0.0000 Si  0  0  0  0  0  0  0  0  0  0  0  0
    1.2256    1.0284    0.0000 C   0  0  0  0  0  0  0  0  0  0  0  0
    1.2954    2.6270    0.0000 H   0  0  0  0  0  0  0  0  0  0  0  0
    0.1446    2.2082    0.0000 H   0  0  0  0  0  0  0  0  0  0  0  0
    2.8014    1.3063    0.0000 C   0  0  0  0  0  0  0  0  0  0  0  0
    3.2824   -0.2197    0.0000 H   0  0  0  0  0  0  0  0  0  0  0  0
    4.2207    0.5675    0.0000 H   0  0  0  0  0  0  0  0  0  0  0  0
    3.3486    2.8098    0.0000 C   0  0  0  0  0  0  0  0  0  0  0  0
    2.8674    4.3358    0.0000 H   0  0  0  0  0  0  0  0  0  0  0  0
    1.9294    3.5486    0.0000 H   0  0  0  0  0  0  0  0  0  0  0  0
    4.9242    3.0877    0.0000 C   0  0  0  0  0  0  0  0  0  0  0  0
    5.4055    1.5616    0.0000 H   0  0  0  0  0  0  0  0  0  0  0  0
    6.3435    2.3489    0.0000 H   0  0  0  0  0  0  0  0  0  0  0  0
    5.4714    4.5911    0.0000 C   0  0  0  0  0  0  0  0  0  0  0  0
    4.9905    6.1172    0.0000 H   0  0  0  0  0  0  0  0  0  0  0  0
    4.0522    5.3299    0.0000 H   0  0  0  0  0  0  0  0  0  0  0  0
    7.0473    4.8691    0.0000 C   0  0  0  0  0  0  0  0  0  0  0  0
    8.6229    5.1467    0.0000 H   0  0  0  0  0  0  0  0  0  0  0  0
    7.5945    6.3725    0.0000 H   0  0  0  0  0  0  0  0  0  0  0  0
    8.0757    3.6433    0.0000 H   0  0  0  0  0  0  0  0  0  0  0  0
    0.8001   -1.3858    0.0000 C   0  0  0  0  0  0  0  0  0  0  0  0
    2.2782   -0.7734    0.0000 H   0  0  0  0  0  0  0  0  0  0  0  0
    2.2782   -1.9979    0.0000 H   0  0  0  0  0  0  0  0  0  0  0  0
    0.5223   -2.9613    0.0000 C   0  0  0  0  0  0  0  0  0  0  0  0
   -0.6576   -4.0422    0.0000 H   0  0  0  0  0  0  0  0  0  0  0  0
   -1.0764   -2.8917    0.0000 H   0  0  0  0  0  0  0  0  0  0  0  0
    1.7477   -3.9898    0.0000 C   0  0  0  0  0  0  0  0  0  0  0  0
    2.9276   -2.9089    0.0000 H   0  0  0  0  0  0  0  0  0  0  0  0
    3.3464   -4.0596    0.0000 H   0  0  0  0  0  0  0  0  0  0  0  0
    1.4699   -5.5655    0.0000 C   0  0  0  0  0  0  0  0  0  0  0  0
    0.2903   -6.6465    0.0000 H   0  0  0  0  0  0  0  0  0  0  0  0
   -0.1285   -5.4957    0.0000 H   0  0  0  0  0  0  0  0  0  0  0  0
    2.6956   -6.5938    0.0000 C   0  0  0  0  0  0  0  0  0  0  0  0
    3.8752   -5.5129    0.0000 H   0  0  0  0  0  0  0  0  0  0  0  0
    4.2940   -6.6637    0.0000 H   0  0  0  0  0  0  0  0  0  0  0  0
    2.4178   -8.1696    0.0000 C   0  0  0  0  0  0  0  0  0  0  0  0
    2.1399   -9.7453    0.0000 H   0  0  0  0  0  0  0  0  0  0  0  0
    3.6435   -9.1981    0.0000 H   0  0  0  0  0  0  0  0  0  0  0  0
    0.9144   -8.7168    0.0000 H   0  0  0  0  0  0  0  0  0  0  0  0
   -1.5758   -0.2778    0.0000 C   0  0  0  0  0  0  0  0  0  0  0  0
   -1.5060   -1.8764    0.0000 H   0  0  0  0  0  0  0  0  0  0  0  0
   -2.6567   -1.4576    0.0000 H   0  0  0  0  0  0  0  0  0  0  0  0
   -2.6042    0.9477    0.0000 C   0  0  0  0  0  0  0  0  0  0  0  0
   -2.6740    2.5464    0.0000 H   0  0  0  0  0  0  0  0  0  0  0  0
   -1.5233    2.1275    0.0000 H   0  0  0  0  0  0  0  0  0  0  0  0
   -4.1798    0.6701    0.0000 C   0  0  0  0  0  0  0  0  0  0  0  0
   -4.1100   -0.9285    0.0000 H   0  0  0  0  0  0  0  0  0  0  0  0
   -5.2607   -0.5097    0.0000 H   0  0  0  0  0  0  0  0  0  0  0  0
   -5.2082    1.8956    0.0000 C   0  0  0  0  0  0  0  0  0  0  0  0
   -5.2780    3.4942    0.0000 H   0  0  0  0  0  0  0  0  0  0  0  0
   -4.1273    3.0754    0.0000 H   0  0  0  0  0  0  0  0  0  0  0  0
   -6.7841    1.6179    0.0000 C   0  0  0  0  0  0  0  0  0  0  0  0
   -6.7143    0.0193    0.0000 H   0  0  0  0  0  0  0  0  0  0  0  0
   -7.8650    0.4382    0.0000 H   0  0  0  0  0  0  0  0  0  0  0  0
   -7.8125    2.8435    0.0000 C   0  0  0  0  0  0  0  0  0  0  0  0
   -8.8410    4.0692    0.0000 H   0  0  0  0  0  0  0  0  0  0  0  0
   -9.3881    2.5656    0.0000 H   0  0  0  0  0  0  0  0  0  0  0  0
   -7.2654    4.3469    0.0000 H   0  0  0  0  0  0  0  0  0  0  0  0
  1  2  1  0  0  0  0
  2  3  1  0  0  0  0
  3  4  1  0  0  0  0
  3  5  1  0  0  0  0
  3  6  1  0  0  0  0
  6  7  1  0  0  0  0
  6  8  1  0  0  0  0
  6  9  1  0  0  0  0
  9 10  1  0  0  0  0
  9 11  1  0  0  0  0
  9 12  1  0  0  0  0
 12 13  1  0  0  0  0
 12 14  1  0  0  0  0
 12 15  1  0  0  0  0
 15 16  1  0  0  0  0
 15 17  1  0  0  0  0
 15 18  1  0  0  0  0
 18 19  1  0  0  0  0
 18 20  1  0  0  0  0
 18 21  1  0  0  0  0
  2 22  1  0  0  0  0
 22 23  1  0  0  0  0
 22 24  1  0  0  0  0
 22 25  1  0  0  0  0
 25 26  1  0  0  0  0
 25 27  1  0  0  0  0
 25 28  1  0  0  0  0
 28 29  1  0  0  0  0
 28 30  1  0  0  0  0
 28 31  1  0  0  0  0
 31 32  1  0  0  0  0
 31 33  1  0  0  0  0
 31 34  1  0  0  0  0
 34 35  1  0  0  0  0
 34 36  1  0  0  0  0
 34 37  1  0  0  0  0
 37 38  1  0  0  0  0
 37 39  1  0  0  0  0
 37 40  1  0  0  0  0
  2 41  1  0  0  0  0
 41 42  1  0  0  0  0
 41 43  1  0  0  0  0
 41 44  1  0  0  0  0
 44 45  1  0  0  0  0
 44 46  1  0  0  0  0
 44 47  1  0  0  0  0
 47 48  1  0  0  0  0
 47 49  1  0  0  0  0
 47 50  1  0  0  0  0
 50 51  1  0  0  0  0
 50 52  1  0  0  0  0
 50 53  1  0  0  0  0
 53 54  1  0  0  0  0
 53 55  1  0  0  0  0
 53 56  1  0  0  0  0
 56 57  1  0  0  0  0
 56 58  1  0  0  0  0
 56 59  1  0  0  0  0
M  END
> <ChemID>
101070

> <source_casrn>
3634-67-1

> <CAS>
3634-67-1

> <SMILES>
CCCCCC[Si](Cl)(CCCCCC)CCCCCC

> <NAME>
Silane, chlorotrihexyl-

> <preferred_name>
Silane, chlorotrihexyl-

> <iupac>
chloro-trihexylsilane

> <MPID>
101058

> <dsstox_substance_id>
DTXSID0063107

> <Canonical_QSARr>
CCCCCC[Si](Cl)(CCCCCC)CCCCCC

> <InChI_Code_QSARr>
InChI=1S/C18H39ClSi/c1-4-7-10-13-16-20(19,17-14-11-8-5-2)18-15-12-9-6-3/h4-18H2,1-3H3

> <InChI Key_QSARr>
WZQSBCHNVPAYOC-UHFFFAOYSA-N

> <Salt_Solvent>
?

> <Ready_Biodeg>
0.0

$$$$
101076
  -INDIGO-08031722522D

 20 20  0  0  0  0  0  0  0  0999 V2000
   -1.5757    0.2778    0.0000 C   0  0  0  0  0  0  0  0  0  0  0  0
   -2.3756    1.6635    0.0000 C   0  0  0  0  0  0  0  0  0  0  0  0
   -1.5757    3.0491    0.0000 H   0  0  0  0  0  0  0  0  0  0  0  0
   -3.9757    1.6635    0.0000 C   0  0  0  0  0  0  0  0  0  0  0  0
   -4.7758    3.0491    0.0000 H   0  0  0  0  0  0  0  0  0  0  0  0
   -4.7758    0.2778    0.0000 C   0  0  0  0  0  0  0  0  0  0  0  0
   -6.3757    0.2778    0.0000 H   0  0  0  0  0  0  0  0  0  0  0  0
   -3.9757   -1.1078    0.0000 C   0  0  0  0  0  0  0  0  0  0  0  0
   -4.7758   -2.4934    0.0000 H   0  0  0  0  0  0  0  0  0  0  0  0
   -2.3756   -1.1078    0.0000 C   0  0  0  0  0  0  0  0  0  0  0  0
   -1.5757   -2.4934    0.0000 H   0  0  0  0  0  0  0  0  0  0  0  0
    0.0000   -0.0000    0.0000 C   0  0  0  0  0  0  0  0  0  0  0  0
   -0.5472   -1.5035    0.0000 H   0  0  0  0  0  0  0  0  0  0  0  0
    0.5472    1.5035    0.0000 N   0  0  0  0  0  0  0  0  0  0  0  0
    2.1229    1.7814    0.0000 H   0  0  0  0  0  0  0  0  0  0  0  0
   -0.4812    2.7292    0.0000 H   0  0  0  0  0  0  0  0  0  0  0  0
    1.5036   -0.5472    0.0000 C   0  0  0  0  0  0  0  0  0  0  0  0
    3.0070   -1.0945    0.0000 H   0  0  0  0  0  0  0  0  0  0  0  0
    1.7813   -2.1229    0.0000 H   0  0  0  0  0  0  0  0  0  0  0  0
    2.7291    0.4812    0.0000 H   0  0  0  0  0  0  0  0  0  0  0  0
  1  2  1  0  0  0  0
  2  3  1  0  0  0  0
  2  4  2  0  0  0  0
  4  5  1  0  0  0  0
  4  6  1  0  0  0  0
  6  7  1  0  0  0  0
  6  8  2  0  0  0  0
  8  9  1  0  0  0  0
  8 10  1  0  0  0  0
 10  1  2  0  0  0  0
 10 11  1  0  0  0  0
  1 12  1  0  0  0  0
 12 13  1  0  0  0  0
 12 14  1  0  0  0  0
 14 15  1  0  0  0  0
 14 16  1  0  0  0  0
 12 17  1  0  0  0  0
 17 18  1  0  0  0  0
 17 19  1  0  0  0  0
 17 20  1  0  0  0  0
M  END
> <ChemID>
101076

> <source_casrn>
3886-69-9

> <CAS>
NOCAS_862301

> <SMILES>
NC(c(cccc1)c1)C

> <NAME>
Benzenemethanamine, .alpha.-methyl-, (R)-

> <preferred_name>


> <iupac>


> <MPID>
101062

> <dsstox_substance_id>
DTXSID40862301

> <Canonical_QSARr>
CC(N)c1ccccc1

> <InChI_Code_QSARr>
InChI=1S/C8H11N/c1-7(9)8-5-3-2-4-6-8/h2-7H,9H2,1H3

> <InChI Key_QSARr>
RQEUFEKYXDPUSK-UHFFFAOYSA-N

> <Salt_Solvent>
?

> <Ready_Biodeg>
0.0

$$$$
101081
  -INDIGO-08031722522D

 43 43  0  0  0  0  0  0  0  0999 V2000
   -2.4001    1.3857    0.0000 C   0  0  0  0  0  0  0  0  0  0  0  0
   -1.6000    2.7713    0.0000 O   0  0  0  0  0  0  0  0  0  0  0  0
    0.0000    2.7713    0.0000 H   0  0  0  0  0  0  0  0  0  0  0  0
   -4.0001    1.3857    0.0000 C   0  0  0  0  0  0  0  0  0  0  0  0
   -4.8000    2.7713    0.0000 C   0  0  0  0  0  0  0  0  0  0  0  0
   -5.6001    4.1568    0.0000 C   0  0  0  0  0  0  0  0  0  0  0  0
   -6.4000    5.5426    0.0000 H   0  0  0  0  0  0  0  0  0  0  0  0
   -7.1757    4.4348    0.0000 H   0  0  0  0  0  0  0  0  0  0  0  0
   -5.0528    5.6604    0.0000 H   0  0  0  0  0  0  0  0  0  0  0  0
   -6.1856    1.9713    0.0000 C   0  0  0  0  0  0  0  0  0  0  0  0
   -7.4112    0.9429    0.0000 H   0  0  0  0  0  0  0  0  0  0  0  0
   -7.6891    2.5184    0.0000 H   0  0  0  0  0  0  0  0  0  0  0  0
   -6.4635    3.5469    0.0000 H   0  0  0  0  0  0  0  0  0  0  0  0
   -3.4144    3.5712    0.0000 C   0  0  0  0  0  0  0  0  0  0  0  0
   -1.9108    4.1185    0.0000 H   0  0  0  0  0  0  0  0  0  0  0  0
   -3.1365    5.1470    0.0000 H   0  0  0  0  0  0  0  0  0  0  0  0
   -4.6400    4.5997    0.0000 H   0  0  0  0  0  0  0  0  0  0  0  0
   -4.8000   -0.0000    0.0000 C   0  0  0  0  0  0  0  0  0  0  0  0
   -6.4000   -0.0000    0.0000 H   0  0  0  0  0  0  0  0  0  0  0  0
   -4.0001   -1.3856    0.0000 C   0  0  0  0  0  0  0  0  0  0  0  0
   -4.8000   -2.7713    0.0000 C   0  0  0  0  0  0  0  0  0  0  0  0
   -3.5306   -3.7454    0.0000 H   0  0  0  0  0  0  0  0  0  0  0  0
   -4.5912   -4.3576    0.0000 H   0  0  0  0  0  0  0  0  0  0  0  0
   -6.4000   -2.7713    0.0000 C   0  0  0  0  0  0  0  0  0  0  0  0
   -7.2001   -4.1569    0.0000 H   0  0  0  0  0  0  0  0  0  0  0  0
   -8.0000   -2.7713    0.0000 H   0  0  0  0  0  0  0  0  0  0  0  0
   -5.6001   -4.1569    0.0000 H   0  0  0  0  0  0  0  0  0  0  0  0
   -2.4001   -1.3856    0.0000 C   0  0  0  0  0  0  0  0  0  0  0  0
   -1.6000   -2.7713    0.0000 H   0  0  0  0  0  0  0  0  0  0  0  0
   -1.6000   -0.0000    0.0000 C   0  0  0  0  0  0  0  0  0  0  0  0
    0.0000   -0.0000    0.0000 C   0  0  0  0  0  0  0  0  0  0  0  0
    1.5757   -0.2778    0.0000 C   0  0  0  0  0  0  0  0  0  0  0  0
    3.1514   -0.5557    0.0000 H   0  0  0  0  0  0  0  0  0  0  0  0
    2.8014    0.7506    0.0000 H   0  0  0  0  0  0  0  0  0  0  0  0
    2.3756   -1.6635    0.0000 H   0  0  0  0  0  0  0  0  0  0  0  0
   -0.2778   -1.5758    0.0000 C   0  0  0  0  0  0  0  0  0  0  0  0
   -0.5557   -3.1513    0.0000 H   0  0  0  0  0  0  0  0  0  0  0  0
    0.9478   -2.6041    0.0000 H   0  0  0  0  0  0  0  0  0  0  0  0
    1.2978   -1.2978    0.0000 H   0  0  0  0  0  0  0  0  0  0  0  0
    0.2779    1.5757    0.0000 C   0  0  0  0  0  0  0  0  0  0  0  0
    1.6635    2.3757    0.0000 H   0  0  0  0  0  0  0  0  0  0  0  0
    1.6635    0.7756    0.0000 H   0  0  0  0  0  0  0  0  0  0  0  0
   -1.2256    1.0285    0.0000 H   0  0  0  0  0  0  0  0  0  0  0  0
  1  2  1  0  0  0  0
  2  3  1  0  0  0  0
  1  4  1  0  0  0  0
  4  5  1  0  0  0  0
  5  6  1  0  0  0  0
  6  7  1  0  0  0  0
  6  8  1  0  0  0  0
  6  9  1  0  0  0  0
  5 10  1  0  0  0  0
 10 11  1  0  0  0  0
 10 12  1  0  0  0  0
 10 13  1  0  0  0  0
  5 14  1  0  0  0  0
 14 15  1  0  0  0  0
 14 16  1  0  0  0  0
 14 17  1  0  0  0  0
  4 18  2  0  0  0  0
 18 19  1  0  0  0  0
 18 20  1  0  0  0  0
 20 21  1  0  0  0  0
 21 22  1  0  0  0  0
 21 23  1  0  0  0  0
 21 24  1  0  0  0  0
 24 25  1  0  0  0  0
 24 26  1  0  0  0  0
 24 27  1  0  0  0  0
 20 28  2  0  0  0  0
 28 29  1  0  0  0  0
 28 30  1  0  0  0  0
 30  1  2  0  0  0  0
 30 31  1  0  0  0  0
 31 32  1  0  0  0  0
 32 33  1  0  0  0  0
 32 34  1  0  0  0  0
 32 35  1  0  0  0  0
 31 36  1  0  0  0  0
 36 37  1  0  0  0  0
 36 38  1  0  0  0  0
 36 39  1  0  0  0  0
 31 40  1  0  0  0  0
 40 41  1  0  0  0  0
 40 42  1  0  0  0  0
 40 43  1  0  0  0  0
M  END
> <ChemID>
101081

> <source_casrn>
4130-42-1

> <CAS>
4130-42-1

> <SMILES>
CCc1cc(c(O)c(c1)C(C)(C)C)C(C)(C)C

> <NAME>
Phenol, 2,6-bis(1,1-dimethylethyl)-4-ethyl-

> <preferred_name>
2,6-Di-tert-butyl-4-ethylphenol

> <iupac>
2,6-di-tert-butyl-4-ethylphenol

> <MPID>
101066

> <dsstox_substance_id>
DTXSID0029262

> <Canonical_QSARr>
CCc1cc(c(O)c(c1)C(C)(C)C)C(C)(C)C

> <InChI_Code_QSARr>
InChI=1S/C16H26O/c1-8-11-9-12(15(2,3)4)14(17)13(10-11)16(5,6)7/h9-10,17H,8H2,1-7H3

> <InChI Key_QSARr>
BVUXDWXKPROUDO-UHFFFAOYSA-N

> <Salt_Solvent>
?

> <Ready_Biodeg>
0.0

$$$$
101085
  -INDIGO-08031722522D

 15 15  0  0  0  0  0  0  0  0999 V2000
    2.4000    1.3856    0.0000 N   0  0  0  0  0  0  0  0  0  0  0  0
    3.2001   -0.0000    0.0000 C   0  0  0  0  0  0  0  0  0  0  0  0
    4.8001   -0.0000    0.0000 N   0  0  0  0  0  0  0  0  0  0  0  0
    5.6000    1.3856    0.0000 H   0  0  0  0  0  0  0  0  0  0  0  0
    5.6000   -1.3856    0.0000 H   0  0  0  0  0  0  0  0  0  0  0  0
    2.4000   -1.3856    0.0000 C   0  0  0  0  0  0  0  0  0  0  0  0
    3.2001   -2.7713    0.0000 H   0  0  0  0  0  0  0  0  0  0  0  0
    0.8000   -1.3856    0.0000 C   0  0  0  0  0  0  0  0  0  0  0  0
   -0.0001   -2.7713    0.0000 H   0  0  0  0  0  0  0  0  0  0  0  0
   -0.0001    0.0000    0.0000 C   0  0  0  0  0  0  0  0  0  0  0  0
   -1.6001    0.0000    0.0000 N   0  0  0  0  0  0  0  0  0  0  0  0
   -2.4000    1.3856    0.0000 H   0  0  0  0  0  0  0  0  0  0  0  0
   -2.4000   -1.3856    0.0000 H   0  0  0  0  0  0  0  0  0  0  0  0
    0.8000    1.3856    0.0000 C   0  0  0  0  0  0  0  0  0  0  0  0
    0.0001    2.7713    0.0000 H   0  0  0  0  0  0  0  0  0  0  0  0
  1  2  1  0  0  0  0
  2  3  1  0  0  0  0
  3  4  1  0  0  0  0
  3  5  1  0  0  0  0
  2  6  2  0  0  0  0
  6  7  1  0  0  0  0
  6  8  1  0  0  0  0
  8  9  1  0  0  0  0
  8 10  2  0  0  0  0
 10 11  1  0  0  0  0
 11 12  1  0  0  0  0
 11 13  1  0  0  0  0
 10 14  1  0  0  0  0
 14  1  2  0  0  0  0
 14 15  1  0  0  0  0
M  END
> <ChemID>
101085

> <source_casrn>
4318-76-7

> <CAS>
4318-76-7

> <SMILES>
Nc1c[n]c(N)cc1

> <NAME>
2,5-Pyridinediamine

> <preferred_name>
Pyridine, 2,5-diamino-

> <iupac>
PYRIDINE-2,5-DIAMINE

> <MPID>
101070

> <dsstox_substance_id>
DTXSID20195765

> <Canonical_QSARr>
Nc1c[n]c(N)cc1

> <InChI_Code_QSARr>
InChI=1S/C5H7N3/c6-4-1-2-5(7)8-3-4/h1-3H,6H2,(H2,7,8)

> <InChI Key_QSARr>
MIROPXUFDXCYLG-UHFFFAOYSA-N

> <Salt_Solvent>
?

> <Ready_Biodeg>
1.0

$$$$
101089
  -INDIGO-08031722522D

 75 74  0  0  0  0  0  0  0  0999 V2000
  -11.0853   -0.0000    0.0000 C   0  0  0  0  0  0  0  0  0  0  0  0
  -10.4729   -1.4782    0.0000 H   0  0  0  0  0  0  0  0  0  0  0  0
  -11.6972   -1.4782    0.0000 H   0  0  0  0  0  0  0  0  0  0  0  0
  -12.4706    0.8000    0.0000 C   0  0  0  0  0  0  0  0  0  0  0  0
  -13.0830    2.2782    0.0000 H   0  0  0  0  0  0  0  0  0  0  0  0
  -11.8582    2.2782    0.0000 H   0  0  0  0  0  0  0  0  0  0  0  0
  -13.8565   -0.0000    0.0000 C   0  0  0  0  0  0  0  0  0  0  0  0
  -13.2441   -1.4782    0.0000 H   0  0  0  0  0  0  0  0  0  0  0  0
  -14.4689   -1.4782    0.0000 H   0  0  0  0  0  0  0  0  0  0  0  0
  -15.2418    0.8000    0.0000 C   0  0  0  0  0  0  0  0  0  0  0  0
  -15.8542    2.2782    0.0000 H   0  0  0  0  0  0  0  0  0  0  0  0
  -14.6300    2.2782    0.0000 H   0  0  0  0  0  0  0  0  0  0  0  0
  -16.6277   -0.0000    0.0000 C   0  0  0  0  0  0  0  0  0  0  0  0
  -16.0153   -1.4782    0.0000 H   0  0  0  0  0  0  0  0  0  0  0  0
  -17.2401   -1.4782    0.0000 H   0  0  0  0  0  0  0  0  0  0  0  0
  -18.0136    0.8000    0.0000 C   0  0  0  0  0  0  0  0  0  0  0  0
  -18.6254    2.2782    0.0000 H   0  0  0  0  0  0  0  0  0  0  0  0
  -17.4012    2.2782    0.0000 H   0  0  0  0  0  0  0  0  0  0  0  0
  -19.3989   -0.0000    0.0000 C   0  0  0  0  0  0  0  0  0  0  0  0
  -18.7865   -1.4782    0.0000 H   0  0  0  0  0  0  0  0  0  0  0  0
  -20.0113   -1.4782    0.0000 H   0  0  0  0  0  0  0  0  0  0  0  0
  -20.7848    0.8000    0.0000 C   0  0  0  0  0  0  0  0  0  0  0  0
  -21.3966    2.2782    0.0000 H   0  0  0  0  0  0  0  0  0  0  0  0
  -20.1724    2.2782    0.0000 H   0  0  0  0  0  0  0  0  0  0  0  0
  -22.1701   -0.0000    0.0000 C   0  0  0  0  0  0  0  0  0  0  0  0
  -21.5577   -1.4782    0.0000 H   0  0  0  0  0  0  0  0  0  0  0  0
  -22.7825   -1.4782    0.0000 H   0  0  0  0  0  0  0  0  0  0  0  0
  -23.5560    0.8000    0.0000 C   0  0  0  0  0  0  0  0  0  0  0  0
  -24.1684    2.2782    0.0000 H   0  0  0  0  0  0  0  0  0  0  0  0
  -22.9436    2.2782    0.0000 H   0  0  0  0  0  0  0  0  0  0  0  0
  -24.9413   -0.0000    0.0000 C   0  0  0  0  0  0  0  0  0  0  0  0
  -26.3272   -0.8000    0.0000 H   0  0  0  0  0  0  0  0  0  0  0  0
  -26.3272    0.8000    0.0000 H   0  0  0  0  0  0  0  0  0  0  0  0
  -24.9413   -1.6000    0.0000 H   0  0  0  0  0  0  0  0  0  0  0  0
   -9.6994    0.8000    0.0000 C   0  0  0  0  0  0  0  0  0  0  0  0
  -10.3118    2.2782    0.0000 H   0  0  0  0  0  0  0  0  0  0  0  0
   -9.0870    2.2782    0.0000 H   0  0  0  0  0  0  0  0  0  0  0  0
   -8.3136   -0.0000    0.0000 O   0  0  0  0  0  0  0  0  0  0  0  0
   -6.9282    0.8000    0.0000 C   0  0  0  0  0  0  0  0  0  0  0  0
   -7.5406    2.2782    0.0000 H   0  0  0  0  0  0  0  0  0  0  0  0
   -6.3158    2.2782    0.0000 H   0  0  0  0  0  0  0  0  0  0  0  0
   -5.5424   -0.0000    0.0000 C   0  0  0  0  0  0  0  0  0  0  0  0
   -4.9305   -1.4782    0.0000 H   0  0  0  0  0  0  0  0  0  0  0  0
   -6.1548   -1.4782    0.0000 H   0  0  0  0  0  0  0  0  0  0  0  0
   -4.1570    0.8000    0.0000 C   0  0  0  0  0  0  0  0  0  0  0  0
   -4.7695    2.2782    0.0000 H   0  0  0  0  0  0  0  0  0  0  0  0
   -3.5446    2.2782    0.0000 H   0  0  0  0  0  0  0  0  0  0  0  0
   -2.7712   -0.0000    0.0000 C   0  0  0  0  0  0  0  0  0  0  0  0
   -2.1588   -1.4782    0.0000 H   0  0  0  0  0  0  0  0  0  0  0  0
   -3.3836   -1.4782    0.0000 H   0  0  0  0  0  0  0  0  0  0  0  0
   -1.3859    0.8000    0.0000 C   0  0  0  0  0  0  0  0  0  0  0  0
   -1.9977    2.2782    0.0000 H   0  0  0  0  0  0  0  0  0  0  0  0
   -0.7735    2.2782    0.0000 H   0  0  0  0  0  0  0  0  0  0  0  0
    0.0000   -0.0000    0.0000 C   0  0  0  0  0  0  0  0  0  0  0  0
    0.6124   -1.4782    0.0000 H   0  0  0  0  0  0  0  0  0  0  0  0
   -0.6124   -1.4782    0.0000 H   0  0  0  0  0  0  0  0  0  0  0  0
    1.3859    0.8000    0.0000 C   0  0  0  0  0  0  0  0  0  0  0  0
    0.7735    2.2782    0.0000 H   0  0  0  0  0  0  0  0  0  0  0  0
    1.9977    2.2782    0.0000 H   0  0  0  0  0  0  0  0  0  0  0  0
    2.7712   -0.0000    0.0000 C   0  0  0  0  0  0  0  0  0  0  0  0
    3.3836   -1.4782    0.0000 H   0  0  0  0  0  0  0  0  0  0  0  0
    2.1588   -1.4782    0.0000 H   0  0  0  0  0  0  0  0  0  0  0  0
    4.1571    0.8000    0.0000 C   0  0  0  0  0  0  0  0  0  0  0  0
    3.5447    2.2782    0.0000 H   0  0  0  0  0  0  0  0  0  0  0  0
    4.7689    2.2782    0.0000 H   0  0  0  0  0  0  0  0  0  0  0  0
    5.5424   -0.0000    0.0000 C   0  0  0  0  0  0  0  0  0  0  0  0
    6.1548   -1.4782    0.0000 H   0  0  0  0  0  0  0  0  0  0  0  0
    4.9300   -1.4782    0.0000 H   0  0  0  0  0  0  0  0  0  0  0  0
    6.9283    0.8000    0.0000 C   0  0  0  0  0  0  0  0  0  0  0  0
    6.3159    2.2782    0.0000 H   0  0  0  0  0  0  0  0  0  0  0  0
    7.5407    2.2782    0.0000 H   0  0  0  0  0  0  0  0  0  0  0  0
    8.3136   -0.0000    0.0000 C   0  0  0  0  0  0  0  0  0  0  0  0
    9.6995   -0.8000    0.0000 H   0  0  0  0  0  0  0  0  0  0  0  0
    9.6995    0.8000    0.0000 H   0  0  0  0  0  0  0  0  0  0  0  0
    8.3136   -1.6000    0.0000 H   0  0  0  0  0  0  0  0  0  0  0  0
  1  2  1  0  0  0  0
  1  3  1  0  0  0  0
  1  4  1  0  0  0  0
  4  5  1  0  0  0  0
  4  6  1  0  0  0  0
  4  7  1  0  0  0  0
  7  8  1  0  0  0  0
  7  9  1  0  0  0  0
  7 10  1  0  0  0  0
 10 11  1  0  0  0  0
 10 12  1  0  0  0  0
 10 13  1  0  0  0  0
 13 14  1  0  0  0  0
 13 15  1  0  0  0  0
 13 16  1  0  0  0  0
 16 17  1  0  0  0  0
 16 18  1  0  0  0  0
 16 19  1  0  0  0  0
 19 20  1  0  0  0  0
 19 21  1  0  0  0  0
 19 22  1  0  0  0  0
 22 23  1  0  0  0  0
 22 24  1  0  0  0  0
 22 25  1  0  0  0  0
 25 26  1  0  0  0  0
 25 27  1  0  0  0  0
 25 28  1  0  0  0  0
 28 29  1  0  0  0  0
 28 30  1  0  0  0  0
 28 31  1  0  0  0  0
 31 32  1  0  0  0  0
 31 33  1  0  0  0  0
 31 34  1  0  0  0  0
  1 35  1  0  0  0  0
 35 36  1  0  0  0  0
 35 37  1  0  0  0  0
 35 38  1  0  0  0  0
 38 39  1  0  0  0  0
 39 40  1  0  0  0  0
 39 41  1  0  0  0  0
 39 42  1  0  0  0  0
 42 43  1  0  0  0  0
 42 44  1  0  0  0  0
 42 45  1  0  0  0  0
 45 46  1  0  0  0  0
 45 47  1  0  0  0  0
 45 48  1  0  0  0  0
 48 49  1  0  0  0  0
 48 50  1  0  0  0  0
 48 51  1  0  0  0  0
 51 52  1  0  0  0  0
 51 53  1  0  0  0  0
 51 54  1  0  0  0  0
 54 55  1  0  0  0  0
 54 56  1  0  0  0  0
 54 57  1  0  0  0  0
 57 58  1  0  0  0  0
 57 59  1  0  0  0  0
 57 60  1  0  0  0  0
 60 61  1  0  0  0  0
 60 62  1  0  0  0  0
 60 63  1  0  0  0  0
 63 64  1  0  0  0  0
 63 65  1  0  0  0  0
 63 66  1  0  0  0  0
 66 67  1  0  0  0  0
 66 68  1  0  0  0  0
 66 69  1  0  0  0  0
 69 70  1  0  0  0  0
 69 71  1  0  0  0  0
 69 72  1  0  0  0  0
 72 73  1  0  0  0  0
 72 74  1  0  0  0  0
 72 75  1  0  0  0  0
M  END
> <ChemID>
101089

> <source_casrn>
4542-57-8

> <CAS>
4542-57-8

> <SMILES>
CCCCCCCCCCCCOCCCCCCCCCCCC

> <NAME>
Dodecane, 1,1'-oxybis-

> <preferred_name>
Didodecyl ether

> <iupac>
didodecyl ether

> <MPID>
101074

> <dsstox_substance_id>
DTXSID5051494

> <Canonical_QSARr>
CCCCCCCCCCCCOCCCCCCCCCCCC

> <InChI_Code_QSARr>
InChI=1S/C24H50O/c1-3-5-7-9-11-13-15-17-19-21-23-25-24-22-20-18-16-14-12-10-8-6-4-2/h3-24H2,1-2H3

> <InChI Key_QSARr>
CMCBDXRRFKYBDG-UHFFFAOYSA-N

> <Salt_Solvent>
?

> <Ready_Biodeg>
1.0

$$$$
101093
  -INDIGO-08031722522D

 16 17  0  0  0  0  0  0  0  0999 V2000
    2.7713   -0.0000    0.0000 C   0  0  0  0  0  0  0  0  0  0  0  0
    4.1569    0.8000    0.0000 H   0  0  0  0  0  0  0  0  0  0  0  0
    2.7713   -1.6000    0.0000 C   0  0  0  0  0  0  0  0  0  0  0  0
    4.1569   -2.4000    0.0000 H   0  0  0  0  0  0  0  0  0  0  0  0
    1.3856   -2.4000    0.0000 C   0  0  0  0  0  0  0  0  0  0  0  0
    1.3856   -4.0000    0.0000 H   0  0  0  0  0  0  0  0  0  0  0  0
    0.0000   -1.6000    0.0000 C   0  0  0  0  0  0  0  0  0  0  0  0
    0.0000   -0.0000    0.0000 C   0  0  0  0  0  0  0  0  0  0  0  0
   -1.3856    0.8000    0.0000 C   0  0  0  0  0  0  0  0  0  0  0  0
   -1.3856    2.4000    0.0000 Cl  0  0  0  0  0  0  0  0  0  0  0  0
   -2.7713   -0.0000    0.0000 N   0  0  0  0  0  0  0  0  0  0  0  0
   -2.7713   -1.6000    0.0000 N   0  0  0  0  0  0  0  0  0  0  0  0
   -1.3856   -2.4000    0.0000 C   0  0  0  0  0  0  0  0  0  0  0  0
   -1.3856   -4.0000    0.0000 Cl  0  0  0  0  0  0  0  0  0  0  0  0
    1.3856    0.8000    0.0000 C   0  0  0  0  0  0  0  0  0  0  0  0
    1.3856    2.4000    0.0000 H   0  0  0  0  0  0  0  0  0  0  0  0
  1  2  1  0  0  0  0
  1  3  1  0  0  0  0
  3  4  1  0  0  0  0
  3  5  2  0  0  0  0
  5  6  1  0  0  0  0
  5  7  1  0  0  0  0
  7  8  1  0  0  0  0
  8  9  2  0  0  0  0
  9 10  1  0  0  0  0
  9 11  1  0  0  0  0
 11 12  2  0  0  0  0
 12 13  1  0  0  0  0
 13  7  2  0  0  0  0
 13 14  1  0  0  0  0
  8 15  1  0  0  0  0
 15  1  2  0  0  0  0
 15 16  1  0  0  0  0
M  END
> <ChemID>
101093

> <source_casrn>
4752-10-7

> <CAS>
4752-10-7

> <SMILES>
Clc1[n][n]c(Cl)c2ccccc12

> <NAME>
1,4-Dichlorophthalazine

> <preferred_name>
1,4-Dichlorophthalazine

> <iupac>
1,4-dichlorophthalazine

> <MPID>
101078

> <dsstox_substance_id>
DTXSID1049306

> <Canonical_QSARr>
Clc1[n][n]c(Cl)c2ccccc12

> <InChI_Code_QSARr>
InChI=1S/C8H4Cl2N2/c9-7-5-3-1-2-4-6(5)8(10)12-11-7/h1-4H

> <InChI Key_QSARr>
ODCNAEMHGMYADO-UHFFFAOYSA-N

> <Salt_Solvent>
?

> <Ready_Biodeg>
0.0

$$$$
101097
  -INDIGO-08031722522D

 25 24  0  0  0  0  0  0  0  0999 V2000
    4.1569    0.8000    0.0000 C   0  0  0  0  0  0  0  0  0  0  0  0
    4.7693    2.2782    0.0000 H   0  0  0  0  0  0  0  0  0  0  0  0
    3.5446    2.2782    0.0000 H   0  0  0  0  0  0  0  0  0  0  0  0
    5.5426    0.0000    0.0000 C   0  0  0  0  0  0  0  0  0  0  0  0
    4.7426   -1.3856    0.0000 H   0  0  0  0  0  0  0  0  0  0  0  0
    6.9281   -0.8000    0.0000 C   0  0  0  0  0  0  0  0  0  0  0  0
    8.3138   -1.6000    0.0000 H   0  0  0  0  0  0  0  0  0  0  0  0
    8.3138    0.0000    0.0000 H   0  0  0  0  0  0  0  0  0  0  0  0
    6.9281   -2.4000    0.0000 H   0  0  0  0  0  0  0  0  0  0  0  0
    6.3426    1.3856    0.0000 O   0  0  0  0  0  0  0  0  0  0  0  0
    7.9426    1.3856    0.0000 H   0  0  0  0  0  0  0  0  0  0  0  0
    2.7712    0.0000    0.0000 O   0  0  0  0  0  0  0  0  0  0  0  0
    1.3857    0.8000    0.0000 C   0  0  0  0  0  0  0  0  0  0  0  0
    1.9979    2.2782    0.0000 H   0  0  0  0  0  0  0  0  0  0  0  0
    0.7733    2.2782    0.0000 H   0  0  0  0  0  0  0  0  0  0  0  0
    0.0000    0.0000    0.0000 C   0  0  0  0  0  0  0  0  0  0  0  0
   -0.6124   -1.4782    0.0000 H   0  0  0  0  0  0  0  0  0  0  0  0
    0.6124   -1.4782    0.0000 H   0  0  0  0  0  0  0  0  0  0  0  0
   -1.3857    0.8000    0.0000 C   0  0  0  0  0  0  0  0  0  0  0  0
   -0.7733    2.2782    0.0000 H   0  0  0  0  0  0  0  0  0  0  0  0
   -1.9979    2.2782    0.0000 H   0  0  0  0  0  0  0  0  0  0  0  0
   -2.7712    0.0000    0.0000 C   0  0  0  0  0  0  0  0  0  0  0  0
   -4.1569   -0.8000    0.0000 H   0  0  0  0  0  0  0  0  0  0  0  0
   -4.1569    0.8000    0.0000 H   0  0  0  0  0  0  0  0  0  0  0  0
   -2.7712   -1.6000    0.0000 H   0  0  0  0  0  0  0  0  0  0  0  0
  1  2  1  0  0  0  0
  1  3  1  0  0  0  0
  1  4  1  0  0  0  0
  4  5  1  0  0  0  0
  4  6  1  0  0  0  0
  6  7  1  0  0  0  0
  6  8  1  0  0  0  0
  6  9  1  0  0  0  0
  4 10  1  0  0  0  0
 10 11  1  0  0  0  0
  1 12  1  0  0  0  0
 12 13  1  0  0  0  0
 13 14  1  0  0  0  0
 13 15  1  0  0  0  0
 13 16  1  0  0  0  0
 16 17  1  0  0  0  0
 16 18  1  0  0  0  0
 16 19  1  0  0  0  0
 19 20  1  0  0  0  0
 19 21  1  0  0  0  0
 19 22  1  0  0  0  0
 22 23  1  0  0  0  0
 22 24  1  0  0  0  0
 22 25  1  0  0  0  0
M  END
> <ChemID>
101097

> <source_casrn>
5131-66-8

> <CAS>
5131-66-8

> <SMILES>
CCCCOCC(C)O

> <NAME>
2-Propanol, 1-butoxy-

> <preferred_name>
1-Butoxy-2-propanol

> <iupac>
1-butoxypropan-2-ol

> <MPID>
101082

> <dsstox_substance_id>
DTXSID8027589

> <Canonical_QSARr>
CCCCOCC(C)O

> <InChI_Code_QSARr>
InChI=1S/C7H16O2/c1-3-4-5-9-6-7(2)8/h7-8H,3-6H2,1-2H3

> <InChI Key_QSARr>
RWNUSVWFHDHRCJ-UHFFFAOYSA-N

> <Salt_Solvent>
?

> <Ready_Biodeg>
1.0

$$$$
101101
  -INDIGO-08031722522D

 27 26  0  0  0  0  0  0  0  0999 V2000
   -4.1569    2.4000    0.0000 O   0  0  0  0  0  0  0  0  0  0  0  0
   -2.7713    3.2000    0.0000 C   0  0  0  0  0  0  0  0  0  0  0  0
   -2.7713    4.8000    0.0000 H   0  0  0  0  0  0  0  0  0  0  0  0
   -1.3856    2.4000    0.0000 C   0  0  0  0  0  0  0  0  0  0  0  0
    0.0001    3.2000    0.0000 H   0  0  0  0  0  0  0  0  0  0  0  0
   -1.3856    0.8000    0.0000 C   0  0  0  0  0  0  0  0  0  0  0  0
    0.0001    0.0000    0.0000 C   0  0  0  0  0  0  0  0  0  0  0  0
    0.6122   -1.4782    0.0000 H   0  0  0  0  0  0  0  0  0  0  0  0
   -0.6123   -1.4782    0.0000 H   0  0  0  0  0  0  0  0  0  0  0  0
    1.3857    0.8000    0.0000 C   0  0  0  0  0  0  0  0  0  0  0  0
    0.7734    2.2782    0.0000 H   0  0  0  0  0  0  0  0  0  0  0  0
    1.9979    2.2782    0.0000 H   0  0  0  0  0  0  0  0  0  0  0  0
    2.7712    0.0000    0.0000 C   0  0  0  0  0  0  0  0  0  0  0  0
    2.7712   -1.6000    0.0000 H   0  0  0  0  0  0  0  0  0  0  0  0
    4.1569    0.8000    0.0000 C   0  0  0  0  0  0  0  0  0  0  0  0
    5.5425    0.0000    0.0000 C   0  0  0  0  0  0  0  0  0  0  0  0
    6.9282   -0.8000    0.0000 H   0  0  0  0  0  0  0  0  0  0  0  0
    6.9282    0.8000    0.0000 H   0  0  0  0  0  0  0  0  0  0  0  0
    5.5425   -1.6000    0.0000 H   0  0  0  0  0  0  0  0  0  0  0  0
    4.1569    2.4000    0.0000 C   0  0  0  0  0  0  0  0  0  0  0  0
    4.1569    4.0000    0.0000 H   0  0  0  0  0  0  0  0  0  0  0  0
    5.5425    3.2000    0.0000 H   0  0  0  0  0  0  0  0  0  0  0  0
    2.7712    3.2000    0.0000 H   0  0  0  0  0  0  0  0  0  0  0  0
   -2.7713    0.0000    0.0000 C   0  0  0  0  0  0  0  0  0  0  0  0
   -4.1569   -0.8000    0.0000 H   0  0  0  0  0  0  0  0  0  0  0  0
   -4.1569    0.8000    0.0000 H   0  0  0  0  0  0  0  0  0  0  0  0
   -2.7713   -1.6000    0.0000 H   0  0  0  0  0  0  0  0  0  0  0  0
  1  2  2  0  0  0  0
  2  3  1  0  0  0  0
  2  4  1  0  0  0  0
  4  5  1  0  0  0  0
  4  6  2  0  0  0  0
  6  7  1  0  0  0  0
  7  8  1  0  0  0  0
  7  9  1  0  0  0  0
  7 10  1  0  0  0  0
 10 11  1  0  0  0  0
 10 12  1  0  0  0  0
 10 13  1  0  0  0  0
 13 14  1  0  0  0  0
 13 15  2  0  0  0  0
 15 16  1  0  0  0  0
 16 17  1  0  0  0  0
 16 18  1  0  0  0  0
 16 19  1  0  0  0  0
 15 20  1  0  0  0  0
 20 21  1  0  0  0  0
 20 22  1  0  0  0  0
 20 23  1  0  0  0  0
  6 24  1  0  0  0  0
 24 25  1  0  0  0  0
 24 26  1  0  0  0  0
 24 27  1  0  0  0  0
M  END
> <ChemID>
101101

> <source_casrn>
5392-40-5

> <CAS>
5392-40-5

> <SMILES>
CC(C)=CCCC(C)=CC=O

> <NAME>
2,6-Octadienal, 3,7-dimethyl-

> <preferred_name>
3,7-Dimethyl-2,6-octadienal

> <iupac>
3,7-dimethylocta-2,6-dienal

> <MPID>
101086

> <dsstox_substance_id>
DTXSID6024836

> <Canonical_QSARr>
CC(C)=CCCC(C)=CC=O

> <InChI_Code_QSARr>
InChI=1S/C10H16O/c1-9(2)5-4-6-10(3)7-8-11/h5,7-8H,4,6H2,1-3H3/b10-7+

> <InChI Key_QSARr>
WTEVQBCEXWBHNA-JXMROGBWSA-N

> <Salt_Solvent>
?

> <Ready_Biodeg>
1.0

$$$$
101107
  -INDIGO-08031722522D

 36 35  0  0  0  0  0  0  0  0999 V2000
    8.3139    0.0000    0.0000 O   0  0  0  0  0  0  0  0  0  0  0  0
    9.6995    0.8000    0.0000 H   0  0  0  0  0  0  0  0  0  0  0  0
    6.9282    0.8000    0.0000 C   0  0  0  0  0  0  0  0  0  0  0  0
    6.9282    2.4000    0.0000 O   0  0  0  0  0  0  0  0  0  0  0  0
    5.5426    0.0000    0.0000 C   0  0  0  0  0  0  0  0  0  0  0  0
    4.9302   -1.4782    0.0000 H   0  0  0  0  0  0  0  0  0  0  0  0
    6.1548   -1.4782    0.0000 H   0  0  0  0  0  0  0  0  0  0  0  0
    4.1570    0.8000    0.0000 C   0  0  0  0  0  0  0  0  0  0  0  0
    4.7692    2.2782    0.0000 H   0  0  0  0  0  0  0  0  0  0  0  0
    3.5446    2.2782    0.0000 H   0  0  0  0  0  0  0  0  0  0  0  0
    2.7714    0.0000    0.0000 C   0  0  0  0  0  0  0  0  0  0  0  0
    2.1589   -1.4782    0.0000 H   0  0  0  0  0  0  0  0  0  0  0  0
    3.3835   -1.4782    0.0000 H   0  0  0  0  0  0  0  0  0  0  0  0
    1.3858    0.8000    0.0000 C   0  0  0  0  0  0  0  0  0  0  0  0
    1.9979    2.2782    0.0000 H   0  0  0  0  0  0  0  0  0  0  0  0
    0.7733    2.2782    0.0000 H   0  0  0  0  0  0  0  0  0  0  0  0
    0.0001    0.0000    0.0000 C   0  0  0  0  0  0  0  0  0  0  0  0
   -0.6123   -1.4782    0.0000 H   0  0  0  0  0  0  0  0  0  0  0  0
    0.6123   -1.4782    0.0000 H   0  0  0  0  0  0  0  0  0  0  0  0
   -1.3858    0.8000    0.0000 C   0  0  0  0  0  0  0  0  0  0  0  0
   -0.7733    2.2782    0.0000 H   0  0  0  0  0  0  0  0  0  0  0  0
   -1.9979    2.2782    0.0000 H   0  0  0  0  0  0  0  0  0  0  0  0
   -2.7714    0.0000    0.0000 C   0  0  0  0  0  0  0  0  0  0  0  0
   -3.3835   -1.4782    0.0000 H   0  0  0  0  0  0  0  0  0  0  0  0
   -2.1589   -1.4782    0.0000 H   0  0  0  0  0  0  0  0  0  0  0  0
   -4.1570    0.8000    0.0000 C   0  0  0  0  0  0  0  0  0  0  0  0
   -3.5446    2.2782    0.0000 H   0  0  0  0  0  0  0  0  0  0  0  0
   -4.7692    2.2782    0.0000 H   0  0  0  0  0  0  0  0  0  0  0  0
   -5.5426    0.0000    0.0000 C   0  0  0  0  0  0  0  0  0  0  0  0
   -6.1548   -1.4782    0.0000 H   0  0  0  0  0  0  0  0  0  0  0  0
   -4.9302   -1.4782    0.0000 H   0  0  0  0  0  0  0  0  0  0  0  0
   -6.9282    0.8000    0.0000 C   0  0  0  0  0  0  0  0  0  0  0  0
   -6.3158    2.2782    0.0000 H   0  0  0  0  0  0  0  0  0  0  0  0
   -7.5404    2.2782    0.0000 H   0  0  0  0  0  0  0  0  0  0  0  0
   -8.3139    0.0000    0.0000 C   0  0  0  0  0  0  0  0  0  0  0  0
   -9.6995   -0.8000    0.0000 N   0  0  0  0  0  0  0  0  0  0  0  0
  1  2  1  0  0  0  0
  1  3  1  0  0  0  0
  3  4  2  0  0  0  0
  3  5  1  0  0  0  0
  5  6  1  0  0  0  0
  5  7  1  0  0  0  0
  5  8  1  0  0  0  0
  8  9  1  0  0  0  0
  8 10  1  0  0  0  0
  8 11  1  0  0  0  0
 11 12  1  0  0  0  0
 11 13  1  0  0  0  0
 11 14  1  0  0  0  0
 14 15  1  0  0  0  0
 14 16  1  0  0  0  0
 14 17  1  0  0  0  0
 17 18  1  0  0  0  0
 17 19  1  0  0  0  0
 17 20  1  0  0  0  0
 20 21  1  0  0  0  0
 20 22  1  0  0  0  0
 20 23  1  0  0  0  0
 23 24  1  0  0  0  0
 23 25  1  0  0  0  0
 23 26  1  0  0  0  0
 26 27  1  0  0  0  0
 26 28  1  0  0  0  0
 26 29  1  0  0  0  0
 29 30  1  0  0  0  0
 29 31  1  0  0  0  0
 29 32  1  0  0  0  0
 32 33  1  0  0  0  0
 32 34  1  0  0  0  0
 32 35  1  0  0  0  0
 35 36  3  0  0  0  0
M  END
> <ChemID>
101107

> <source_casrn>
5810-18-4

> <CAS>
5810-18-4

> <SMILES>
N#CCCCCCCCCCCC(O)=O

> <NAME>
11-Cyanoundecanoic acid

> <preferred_name>
11-Cyanoundecanoic acid

> <iupac>
11-Cyanoundecanoic acid

> <MPID>
101091

> <dsstox_substance_id>
DTXSID40206827

> <Canonical_QSARr>
N#CCCCCCCCCCCC(O)=O

> <InChI_Code_QSARr>
InChI=1S/C12H21NO2/c13-11-9-7-5-3-1-2-4-6-8-10-12(14)15/h1-10H2,(H,14,15)

> <InChI Key_QSARr>
YKHZGLKQBYTRHO-UHFFFAOYSA-N

> <Salt_Solvent>
?

> <Ready_Biodeg>
1.0

$$$$
101111
  -INDIGO-08031722522D

 30 32  0  0  0  0  0  0  0  0999 V2000
    0.6124    5.3409    0.0000 O   0  0  0  0  0  0  0  0  0  0  0  0
   -0.0000    3.8628    0.0000 C   0  0  0  0  0  0  0  0  0  0  0  0
   -1.6000    3.8628    0.0000 N   0  0  0  0  0  0  0  0  0  0  0  0
   -2.2124    5.3409    0.0000 H   0  0  0  0  0  0  0  0  0  0  0  0
   -2.7313    2.7313    0.0000 C   0  0  0  0  0  0  0  0  0  0  0  0
   -2.7313    1.1314    0.0000 C   0  0  0  0  0  0  0  0  0  0  0  0
   -4.1170    0.3314    0.0000 C   0  0  0  0  0  0  0  0  0  0  0  0
   -4.1170   -1.2686    0.0000 H   0  0  0  0  0  0  0  0  0  0  0  0
   -5.5026    1.1314    0.0000 C   0  0  0  0  0  0  0  0  0  0  0  0
   -6.8883    0.3314    0.0000 H   0  0  0  0  0  0  0  0  0  0  0  0
   -5.5026    2.7313    0.0000 C   0  0  0  0  0  0  0  0  0  0  0  0
   -6.8883    3.5313    0.0000 H   0  0  0  0  0  0  0  0  0  0  0  0
   -4.1170    3.5313    0.0000 C   0  0  0  0  0  0  0  0  0  0  0  0
   -4.1170    5.1313    0.0000 H   0  0  0  0  0  0  0  0  0  0  0  0
   -1.6000    0.0000    0.0000 C   0  0  0  0  0  0  0  0  0  0  0  0
   -2.9857   -0.8000    0.0000 H   0  0  0  0  0  0  0  0  0  0  0  0
   -1.1858   -1.5454    0.0000 H   0  0  0  0  0  0  0  0  0  0  0  0
   -0.0000    0.0000    0.0000 C   0  0  0  0  0  0  0  0  0  0  0  0
   -0.1394   -1.5939    0.0000 H   0  0  0  0  0  0  0  0  0  0  0  0
    1.3857   -0.8000    0.0000 H   0  0  0  0  0  0  0  0  0  0  0  0
    1.1313    1.1314    0.0000 C   0  0  0  0  0  0  0  0  0  0  0  0
    1.1313    2.7313    0.0000 C   0  0  0  0  0  0  0  0  0  0  0  0
    2.5170    3.5313    0.0000 C   0  0  0  0  0  0  0  0  0  0  0  0
    2.5170    5.1313    0.0000 H   0  0  0  0  0  0  0  0  0  0  0  0
    3.9026    2.7313    0.0000 C   0  0  0  0  0  0  0  0  0  0  0  0
    5.2883    3.5313    0.0000 H   0  0  0  0  0  0  0  0  0  0  0  0
    3.9026    1.1314    0.0000 C   0  0  0  0  0  0  0  0  0  0  0  0
    5.2883    0.3314    0.0000 H   0  0  0  0  0  0  0  0  0  0  0  0
    2.5170    0.3314    0.0000 C   0  0  0  0  0  0  0  0  0  0  0  0
    2.5170   -1.2686    0.0000 H   0  0  0  0  0  0  0  0  0  0  0  0
  1  2  2  0  0  0  0
  2  3  1  0  0  0  0
  3  4  1  0  0  0  0
  3  5  1  0  0  0  0
  5  6  1  0  0  0  0
  6  7  2  0  0  0  0
  7  8  1  0  0  0  0
  7  9  1  0  0  0  0
  9 10  1  0  0  0  0
  9 11  2  0  0  0  0
 11 12  1  0  0  0  0
 11 13  1  0  0  0  0
 13  5  2  0  0  0  0
 13 14  1  0  0  0  0
  6 15  1  0  0  0  0
 15 16  1  0  0  0  0
 15 17  1  0  0  0  0
 15 18  1  0  0  0  0
 18 19  1  0  0  0  0
 18 20  1  0  0  0  0
 18 21  1  0  0  0  0
 21 22  1  0  0  0  0
 22  2  1  0  0  0  0
 22 23  2  0  0  0  0
 23 24  1  0  0  0  0
 23 25  1  0  0  0  0
 25 26  1  0  0  0  0
 25 27  2  0  0  0  0
 27 28  1  0  0  0  0
 27 29  1  0  0  0  0
 29 21  2  0  0  0  0
 29 30  1  0  0  0  0
M  END
> <ChemID>
101111

> <source_casrn>
6047-29-6

> <CAS>
6047-29-6

> <SMILES>
O=C1Nc2ccccc2CCc2ccccc21

> <NAME>
5,6,11,12-tetrahydrodibenz[b,f]azocin-6-one

> <preferred_name>
5,6,11,12-Tetrahydrodibenz(b,f)azocin-6-one

> <iupac>


> <MPID>
101095

> <dsstox_substance_id>
DTXSID20209215

> <Canonical_QSARr>
O=C1Nc2ccccc2CCc2ccccc21

> <InChI_Code_QSARr>
InChI=1S/C15H13NO/c17-15-13-7-3-1-5-11(13)9-10-12-6-2-4-8-14(12)16-15/h1-8H,9-10H2,(H,16,17)

> <InChI Key_QSARr>
JZDBKFVASLJURR-UHFFFAOYSA-N

> <Salt_Solvent>
?

> <Ready_Biodeg>
1.0

$$$$
101117
  -INDIGO-08031722522D

134133  0  0  0  0  0  0  0  0999 V2000
   -0.0003    0.0000    0.0000 C   0  0  0  0  0  0  0  0  0  0  0  0
    0.6124    1.4782    0.0000 H   0  0  0  0  0  0  0  0  0  0  0  0
   -0.6121    1.4782    0.0000 H   0  0  0  0  0  0  0  0  0  0  0  0
    1.3860   -0.8000    0.0000 C   0  0  0  0  0  0  0  0  0  0  0  0
    0.7732   -2.2782    0.0000 H   0  0  0  0  0  0  0  0  0  0  0  0
    1.9977   -2.2782    0.0000 H   0  0  0  0  0  0  0  0  0  0  0  0
    2.7713    0.0000    0.0000 C   0  0  0  0  0  0  0  0  0  0  0  0
    3.3840    1.4782    0.0000 H   0  0  0  0  0  0  0  0  0  0  0  0
    2.1585    1.4782    0.0000 H   0  0  0  0  0  0  0  0  0  0  0  0
    4.1566   -0.8000    0.0000 C   0  0  0  0  0  0  0  0  0  0  0  0
    3.5448   -2.2782    0.0000 H   0  0  0  0  0  0  0  0  0  0  0  0
    4.7693   -2.2782    0.0000 H   0  0  0  0  0  0  0  0  0  0  0  0
    5.5429    0.0000    0.0000 C   0  0  0  0  0  0  0  0  0  0  0  0
    6.1547    1.4782    0.0000 H   0  0  0  0  0  0  0  0  0  0  0  0
    4.9301    1.4782    0.0000 H   0  0  0  0  0  0  0  0  0  0  0  0
    6.9282   -0.8000    0.0000 C   0  0  0  0  0  0  0  0  0  0  0  0
    6.3155   -2.2782    0.0000 H   0  0  0  0  0  0  0  0  0  0  0  0
    7.5409   -2.2782    0.0000 H   0  0  0  0  0  0  0  0  0  0  0  0
    8.3135    0.0000    0.0000 C   0  0  0  0  0  0  0  0  0  0  0  0
    8.9263    1.4782    0.0000 H   0  0  0  0  0  0  0  0  0  0  0  0
    7.7017    1.4782    0.0000 H   0  0  0  0  0  0  0  0  0  0  0  0
    9.6998   -0.8000    0.0000 C   0  0  0  0  0  0  0  0  0  0  0  0
    9.0871   -2.2782    0.0000 H   0  0  0  0  0  0  0  0  0  0  0  0
   10.3116   -2.2782    0.0000 H   0  0  0  0  0  0  0  0  0  0  0  0
   11.0851    0.0000    0.0000 C   0  0  0  0  0  0  0  0  0  0  0  0
   11.6979    1.4782    0.0000 H   0  0  0  0  0  0  0  0  0  0  0  0
   10.4724    1.4782    0.0000 H   0  0  0  0  0  0  0  0  0  0  0  0
   12.4704   -0.8000    0.0000 C   0  0  0  0  0  0  0  0  0  0  0  0
   11.8587   -2.2782    0.0000 H   0  0  0  0  0  0  0  0  0  0  0  0
   13.0832   -2.2782    0.0000 H   0  0  0  0  0  0  0  0  0  0  0  0
   13.8567    0.0000    0.0000 C   0  0  0  0  0  0  0  0  0  0  0  0
   14.4685    1.4782    0.0000 H   0  0  0  0  0  0  0  0  0  0  0  0
   13.2440    1.4782    0.0000 H   0  0  0  0  0  0  0  0  0  0  0  0
   15.2420   -0.8000    0.0000 C   0  0  0  0  0  0  0  0  0  0  0  0
   14.6293   -2.2782    0.0000 H   0  0  0  0  0  0  0  0  0  0  0  0
   15.8548   -2.2782    0.0000 H   0  0  0  0  0  0  0  0  0  0  0  0
   16.6274    0.0000    0.0000 C   0  0  0  0  0  0  0  0  0  0  0  0
   17.2401    1.4782    0.0000 H   0  0  0  0  0  0  0  0  0  0  0  0
   16.0156    1.4782    0.0000 H   0  0  0  0  0  0  0  0  0  0  0  0
   18.0136   -0.8000    0.0000 C   0  0  0  0  0  0  0  0  0  0  0  0
   17.4009   -2.2782    0.0000 H   0  0  0  0  0  0  0  0  0  0  0  0
   18.6254   -2.2782    0.0000 H   0  0  0  0  0  0  0  0  0  0  0  0
   19.3990    0.0000    0.0000 C   0  0  0  0  0  0  0  0  0  0  0  0
   20.0117    1.4782    0.0000 H   0  0  0  0  0  0  0  0  0  0  0  0
   18.7862    1.4782    0.0000 H   0  0  0  0  0  0  0  0  0  0  0  0
   20.7843   -0.8000    0.0000 C   0  0  0  0  0  0  0  0  0  0  0  0
   20.1725   -2.2782    0.0000 H   0  0  0  0  0  0  0  0  0  0  0  0
   21.3970   -2.2782    0.0000 H   0  0  0  0  0  0  0  0  0  0  0  0
   22.1706    0.0000    0.0000 C   0  0  0  0  0  0  0  0  0  0  0  0
   22.7824    1.4782    0.0000 H   0  0  0  0  0  0  0  0  0  0  0  0
   21.5578    1.4782    0.0000 H   0  0  0  0  0  0  0  0  0  0  0  0
   23.5559   -0.8000    0.0000 C   0  0  0  0  0  0  0  0  0  0  0  0
   22.9431   -2.2782    0.0000 H   0  0  0  0  0  0  0  0  0  0  0  0
   24.1686   -2.2782    0.0000 H   0  0  0  0  0  0  0  0  0  0  0  0
   24.9412    0.0000    0.0000 C   0  0  0  0  0  0  0  0  0  0  0  0
   25.5540    1.4782    0.0000 H   0  0  0  0  0  0  0  0  0  0  0  0
   24.3294    1.4782    0.0000 H   0  0  0  0  0  0  0  0  0  0  0  0
   26.3275   -0.8000    0.0000 C   0  0  0  0  0  0  0  0  0  0  0  0
   25.7148   -2.2782    0.0000 H   0  0  0  0  0  0  0  0  0  0  0  0
   26.9393   -2.2782    0.0000 H   0  0  0  0  0  0  0  0  0  0  0  0
   27.7128    0.0000    0.0000 C   0  0  0  0  0  0  0  0  0  0  0  0
   28.3255    1.4782    0.0000 H   0  0  0  0  0  0  0  0  0  0  0  0
   27.1001    1.4782    0.0000 H   0  0  0  0  0  0  0  0  0  0  0  0
   29.0981   -0.8000    0.0000 C   0  0  0  0  0  0  0  0  0  0  0  0
   28.4863   -2.2782    0.0000 H   0  0  0  0  0  0  0  0  0  0  0  0
   29.7109   -2.2782    0.0000 H   0  0  0  0  0  0  0  0  0  0  0  0
   30.4844    0.0000    0.0000 C   0  0  0  0  0  0  0  0  0  0  0  0
   31.8697    0.8000    0.0000 H   0  0  0  0  0  0  0  0  0  0  0  0
   31.8697   -0.8000    0.0000 H   0  0  0  0  0  0  0  0  0  0  0  0
   30.4844    1.6000    0.0000 H   0  0  0  0  0  0  0  0  0  0  0  0
   -1.3856   -0.8000    0.0000 C   0  0  0  0  0  0  0  0  0  0  0  0
   -1.9984   -2.2782    0.0000 H   0  0  0  0  0  0  0  0  0  0  0  0
   -0.7729   -2.2782    0.0000 H   0  0  0  0  0  0  0  0  0  0  0  0
   -2.7710    0.0000    0.0000 C   0  0  0  0  0  0  0  0  0  0  0  0
   -2.1592    1.4782    0.0000 H   0  0  0  0  0  0  0  0  0  0  0  0
   -3.3837    1.4782    0.0000 H   0  0  0  0  0  0  0  0  0  0  0  0
   -4.1572   -0.8000    0.0000 C   0  0  0  0  0  0  0  0  0  0  0  0
   -4.7690   -2.2782    0.0000 H   0  0  0  0  0  0  0  0  0  0  0  0
   -3.5445   -2.2782    0.0000 H   0  0  0  0  0  0  0  0  0  0  0  0
   -5.5426    0.0000    0.0000 C   0  0  0  0  0  0  0  0  0  0  0  0
   -4.9298    1.4782    0.0000 H   0  0  0  0  0  0  0  0  0  0  0  0
   -6.1553    1.4782    0.0000 H   0  0  0  0  0  0  0  0  0  0  0  0
   -6.9279   -0.8000    0.0000 C   0  0  0  0  0  0  0  0  0  0  0  0
   -7.5406   -2.2782    0.0000 H   0  0  0  0  0  0  0  0  0  0  0  0
   -6.3161   -2.2782    0.0000 H   0  0  0  0  0  0  0  0  0  0  0  0
   -8.3142    0.0000    0.0000 C   0  0  0  0  0  0  0  0  0  0  0  0
   -7.7014    1.4782    0.0000 H   0  0  0  0  0  0  0  0  0  0  0  0
   -8.9259    1.4782    0.0000 H   0  0  0  0  0  0  0  0  0  0  0  0
   -9.6995   -0.8000    0.0000 C   0  0  0  0  0  0  0  0  0  0  0  0
  -10.3122   -2.2782    0.0000 H   0  0  0  0  0  0  0  0  0  0  0  0
   -9.0867   -2.2782    0.0000 H   0  0  0  0  0  0  0  0  0  0  0  0
  -11.0848    0.0000    0.0000 C   0  0  0  0  0  0  0  0  0  0  0  0
  -10.4730    1.4782    0.0000 H   0  0  0  0  0  0  0  0  0  0  0  0
  -11.6975    1.4782    0.0000 H   0  0  0  0  0  0  0  0  0  0  0  0
  -12.4711   -0.8000    0.0000 C   0  0  0  0  0  0  0  0  0  0  0  0
  -13.0829   -2.2782    0.0000 H   0  0  0  0  0  0  0  0  0  0  0  0
  -11.8583   -2.2782    0.0000 H   0  0  0  0  0  0  0  0  0  0  0  0
  -13.8564    0.0000    0.0000 C   0  0  0  0  0  0  0  0  0  0  0  0
  -13.2437    1.4782    0.0000 H   0  0  0  0  0  0  0  0  0  0  0  0
  -14.4691    1.4782    0.0000 H   0  0  0  0  0  0  0  0  0  0  0  0
  -15.2417   -0.8000    0.0000 C   0  0  0  0  0  0  0  0  0  0  0  0
  -15.8545   -2.2782    0.0000 H   0  0  0  0  0  0  0  0  0  0  0  0
  -14.6299   -2.2782    0.0000 H   0  0  0  0  0  0  0  0  0  0  0  0
  -16.6280    0.0000    0.0000 C   0  0  0  0  0  0  0  0  0  0  0  0
  -16.0153    1.4782    0.0000 H   0  0  0  0  0  0  0  0  0  0  0  0
  -17.2398    1.4782    0.0000 H   0  0  0  0  0  0  0  0  0  0  0  0
  -18.0133   -0.8000    0.0000 C   0  0  0  0  0  0  0  0  0  0  0  0
  -18.6261   -2.2782    0.0000 H   0  0  0  0  0  0  0  0  0  0  0  0
  -17.4006   -2.2782    0.0000 H   0  0  0  0  0  0  0  0  0  0  0  0
  -19.3987    0.0000    0.0000 C   0  0  0  0  0  0  0  0  0  0  0  0
  -18.7869    1.4782    0.0000 H   0  0  0  0  0  0  0  0  0  0  0  0
  -20.0114    1.4782    0.0000 H   0  0  0  0  0  0  0  0  0  0  0  0
  -20.7849   -0.8000    0.0000 C   0  0  0  0  0  0  0  0  0  0  0  0
  -21.3967   -2.2782    0.0000 H   0  0  0  0  0  0  0  0  0  0  0  0
  -20.1722   -2.2782    0.0000 H   0  0  0  0  0  0  0  0  0  0  0  0
  -22.1702    0.0000    0.0000 C   0  0  0  0  0  0  0  0  0  0  0  0
  -21.5575    1.4782    0.0000 H   0  0  0  0  0  0  0  0  0  0  0  0
  -22.7830    1.4782    0.0000 H   0  0  0  0  0  0  0  0  0  0  0  0
  -23.5556   -0.8000    0.0000 C   0  0  0  0  0  0  0  0  0  0  0  0
  -24.1683   -2.2782    0.0000 H   0  0  0  0  0  0  0  0  0  0  0  0
  -22.9438   -2.2782    0.0000 H   0  0  0  0  0  0  0  0  0  0  0  0
  -24.9418    0.0000    0.0000 C   0  0  0  0  0  0  0  0  0  0  0  0
  -24.3291    1.4782    0.0000 H   0  0  0  0  0  0  0  0  0  0  0  0
  -25.5536    1.4782    0.0000 H   0  0  0  0  0  0  0  0  0  0  0  0
  -26.3272   -0.8000    0.0000 C   0  0  0  0  0  0  0  0  0  0  0  0
  -26.9399   -2.2782    0.0000 H   0  0  0  0  0  0  0  0  0  0  0  0
  -25.7144   -2.2782    0.0000 H   0  0  0  0  0  0  0  0  0  0  0  0
  -27.7125    0.0000    0.0000 C   0  0  0  0  0  0  0  0  0  0  0  0
  -27.1007    1.4782    0.0000 H   0  0  0  0  0  0  0  0  0  0  0  0
  -28.3252    1.4782    0.0000 H   0  0  0  0  0  0  0  0  0  0  0  0
  -29.0988   -0.8000    0.0000 C   0  0  0  0  0  0  0  0  0  0  0  0
  -30.4841   -1.6000    0.0000 H   0  0  0  0  0  0  0  0  0  0  0  0
  -30.4841    0.0000    0.0000 H   0  0  0  0  0  0  0  0  0  0  0  0
  -29.0988   -2.4000    0.0000 H   0  0  0  0  0  0  0  0  0  0  0  0
  1  2  1  0  0  0  0
  1  3  1  0  0  0  0
  1  4  1  0  0  0  0
  4  5  1  0  0  0  0
  4  6  1  0  0  0  0
  4  7  1  0  0  0  0
  7  8  1  0  0  0  0
  7  9  1  0  0  0  0
  7 10  1  0  0  0  0
 10 11  1  0  0  0  0
 10 12  1  0  0  0  0
 10 13  1  0  0  0  0
 13 14  1  0  0  0  0
 13 15  1  0  0  0  0
 13 16  1  0  0  0  0
 16 17  1  0  0  0  0
 16 18  1  0  0  0  0
 16 19  1  0  0  0  0
 19 20  1  0  0  0  0
 19 21  1  0  0  0  0
 19 22  1  0  0  0  0
 22 23  1  0  0  0  0
 22 24  1  0  0  0  0
 22 25  1  0  0  0  0
 25 26  1  0  0  0  0
 25 27  1  0  0  0  0
 25 28  1  0  0  0  0
 28 29  1  0  0  0  0
 28 30  1  0  0  0  0
 28 31  1  0  0  0  0
 31 32  1  0  0  0  0
 31 33  1  0  0  0  0
 31 34  1  0  0  0  0
 34 35  1  0  0  0  0
 34 36  1  0  0  0  0
 34 37  1  0  0  0  0
 37 38  1  0  0  0  0
 37 39  1  0  0  0  0
 37 40  1  0  0  0  0
 40 41  1  0  0  0  0
 40 42  1  0  0  0  0
 40 43  1  0  0  0  0
 43 44  1  0  0  0  0
 43 45  1  0  0  0  0
 43 46  1  0  0  0  0
 46 47  1  0  0  0  0
 46 48  1  0  0  0  0
 46 49  1  0  0  0  0
 49 50  1  0  0  0  0
 49 51  1  0  0  0  0
 49 52  1  0  0  0  0
 52 53  1  0  0  0  0
 52 54  1  0  0  0  0
 52 55  1  0  0  0  0
 55 56  1  0  0  0  0
 55 57  1  0  0  0  0
 55 58  1  0  0  0  0
 58 59  1  0  0  0  0
 58 60  1  0  0  0  0
 58 61  1  0  0  0  0
 61 62  1  0  0  0  0
 61 63  1  0  0  0  0
 61 64  1  0  0  0  0
 64 65  1  0  0  0  0
 64 66  1  0  0  0  0
 64 67  1  0  0  0  0
 67 68  1  0  0  0  0
 67 69  1  0  0  0  0
 67 70  1  0  0  0  0
  1 71  1  0  0  0  0
 71 72  1  0  0  0  0
 71 73  1  0  0  0  0
 71 74  1  0  0  0  0
 74 75  1  0  0  0  0
 74 76  1  0  0  0  0
 74 77  1  0  0  0  0
 77 78  1  0  0  0  0
 77 79  1  0  0  0  0
 77 80  1  0  0  0  0
 80 81  1  0  0  0  0
 80 82  1  0  0  0  0
 80 83  1  0  0  0  0
 83 84  1  0  0  0  0
 83 85  1  0  0  0  0
 83 86  1  0  0  0  0
 86 87  1  0  0  0  0
 86 88  1  0  0  0  0
 86 89  1  0  0  0  0
 89 90  1  0  0  0  0
 89 91  1  0  0  0  0
 89 92  1  0  0  0  0
 92 93  1  0  0  0  0
 92 94  1  0  0  0  0
 92 95  1  0  0  0  0
 95 96  1  0  0  0  0
 95 97  1  0  0  0  0
 95 98  1  0  0  0  0
 98 99  1  0  0  0  0
 98100  1  0  0  0  0
 98101  1  0  0  0  0
101102  1  0  0  0  0
101103  1  0  0  0  0
101104  1  0  0  0  0
104105  1  0  0  0  0
104106  1  0  0  0  0
104107  1  0  0  0  0
107108  1  0  0  0  0
107109  1  0  0  0  0
107110  1  0  0  0  0
110111  1  0  0  0  0
110112  1  0  0  0  0
110113  1  0  0  0  0
113114  1  0  0  0  0
113115  1  0  0  0  0
113116  1  0  0  0  0
116117  1  0  0  0  0
116118  1  0  0  0  0
116119  1  0  0  0  0
119120  1  0  0  0  0
119121  1  0  0  0  0
119122  1  0  0  0  0
122123  1  0  0  0  0
122124  1  0  0  0  0
122125  1  0  0  0  0
125126  1  0  0  0  0
125127  1  0  0  0  0
125128  1  0  0  0  0
128129  1  0  0  0  0
128130  1  0  0  0  0
128131  1  0  0  0  0
131132  1  0  0  0  0
131133  1  0  0  0  0
131134  1  0  0  0  0
M  END
> <ChemID>
101117

> <source_casrn>
7098-22-8

> <CAS>
7098-22-8

> <SMILES>
CCCCCCCCCCCCCCCCCCCCCCCCCCCCCCCCCCCCCCCCCCCC

> <NAME>
Tetratetracontane

> <preferred_name>
Tetratetracontane

> <iupac>
Tetratetracontane

> <MPID>
101099

> <dsstox_substance_id>
DTXSID5058640

> <Canonical_QSARr>
CCCCCCCCCCCCCCCCCCCCCCCCCCCCCCCCCCCCCCCCCCCC

> <InChI_Code_QSARr>
InChI=1S/C44H90/c1-3-5-7-9-11-13-15-17-19-21-23-25-27-29-31-33-35-37-39-41-43-44-42-40-38-36-34-32-30-28-26-24-22-20-18-16-14-12-10-8-6-4-2/h3-44H2,1-2H3

> <InChI Key_QSARr>
KMXFZRSJMDYPPG-UHFFFAOYSA-N

> <Salt_Solvent>
?

> <Ready_Biodeg>
1.0

$$$$
101121
  -INDIGO-08031722522D

 20 20  0  0  0  0  0  0  0  0999 V2000
    0.0001   -0.0000    0.0000 C   0  0  0  0  0  0  0  0  0  0  0  0
    0.0001   -1.6000    0.0000 C   0  0  0  0  0  0  0  0  0  0  0  0
    1.3856   -2.4000    0.0000 H   0  0  0  0  0  0  0  0  0  0  0  0
   -1.3856   -2.4000    0.0000 C   0  0  0  0  0  0  0  0  0  0  0  0
   -1.3856   -4.0000    0.0000 H   0  0  0  0  0  0  0  0  0  0  0  0
   -2.7713   -1.6000    0.0000 C   0  0  0  0  0  0  0  0  0  0  0  0
   -4.1569   -2.4000    0.0000 O   0  0  0  0  0  0  0  0  0  0  0  0
   -5.5426   -1.6000    0.0000 H   0  0  0  0  0  0  0  0  0  0  0  0
   -2.7713   -0.0000    0.0000 C   0  0  0  0  0  0  0  0  0  0  0  0
   -4.1569    0.8000    0.0000 H   0  0  0  0  0  0  0  0  0  0  0  0
   -1.3856    0.8000    0.0000 C   0  0  0  0  0  0  0  0  0  0  0  0
   -1.3856    2.4000    0.0000 H   0  0  0  0  0  0  0  0  0  0  0  0
    1.3856    0.8000    0.0000 C   0  0  0  0  0  0  0  0  0  0  0  0
    1.3856    2.4000    0.0000 H   0  0  0  0  0  0  0  0  0  0  0  0
    2.7713   -0.0000    0.0000 C   0  0  0  0  0  0  0  0  0  0  0  0
    2.7713   -1.6000    0.0000 H   0  0  0  0  0  0  0  0  0  0  0  0
    4.1570    0.8000    0.0000 C   0  0  0  0  0  0  0  0  0  0  0  0
    5.5425   -0.0000    0.0000 O   0  0  0  0  0  0  0  0  0  0  0  0
    6.9282    0.8000    0.0000 H   0  0  0  0  0  0  0  0  0  0  0  0
    4.1570    2.4000    0.0000 O   0  0  0  0  0  0  0  0  0  0  0  0
  1  2  1  0  0  0  0
  2  3  1  0  0  0  0
  2  4  2  0  0  0  0
  4  5  1  0  0  0  0
  4  6  1  0  0  0  0
  6  7  1  0  0  0  0
  7  8  1  0  0  0  0
  6  9  2  0  0  0  0
  9 10  1  0  0  0  0
  9 11  1  0  0  0  0
 11  1  2  0  0  0  0
 11 12  1  0  0  0  0
  1 13  1  0  0  0  0
 13 14  1  0  0  0  0
 13 15  2  0  0  0  0
 15 16  1  0  0  0  0
 15 17  1  0  0  0  0
 17 18  1  0  0  0  0
 18 19  1  0  0  0  0
 17 20  2  0  0  0  0
M  END
> <ChemID>
101121

> <source_casrn>
7400-08-0

> <CAS>
7400-08-0

> <SMILES>
O=C(O)C=Cc(ccc(O)c1)c1

> <NAME>
P-COUMARIC ACID

> <preferred_name>
p-Hydroxycinnamic acid

> <iupac>


> <MPID>
101103

> <dsstox_substance_id>
DTXSID6064660

> <Canonical_QSARr>
Oc1ccc(C=CC(O)=O)cc1

> <InChI_Code_QSARr>
InChI=1S/C9H8O3/c10-8-4-1-7(2-5-8)3-6-9(11)12/h1-6,10H,(H,11,12)/b6-3+

> <InChI Key_QSARr>
NGSWKAQJJWESNS-ZZXKWVIFSA-N

> <Salt_Solvent>
?

> <Ready_Biodeg>
1.0

$$$$
101125
  -INDIGO-08031722522D

 65 64  0  0  0  0  0  0  0  0999 V2000
  -11.0851    0.0001    0.0000 C   0  0  0  0  0  0  0  0  0  0  0  0
  -10.8073   -1.5757    0.0000 O   0  0  0  0  0  0  0  0  0  0  0  0
  -12.5886    0.5472    0.0000 N   0  0  0  0  0  0  0  0  0  0  0  0
  -13.8143   -0.4813    0.0000 C   0  0  0  0  0  0  0  0  0  0  0  0
  -15.4129   -0.5510    0.0000 H   0  0  0  0  0  0  0  0  0  0  0  0
  -14.9940    0.5997    0.0000 H   0  0  0  0  0  0  0  0  0  0  0  0
  -13.5365   -2.0569    0.0000 C   0  0  0  0  0  0  0  0  0  0  0  0
  -11.9380   -1.9872    0.0000 H   0  0  0  0  0  0  0  0  0  0  0  0
  -12.3568   -3.1378    0.0000 H   0  0  0  0  0  0  0  0  0  0  0  0
  -14.7622   -3.0854    0.0000 O   0  0  0  0  0  0  0  0  0  0  0  0
  -14.4844   -4.6611    0.0000 H   0  0  0  0  0  0  0  0  0  0  0  0
  -12.8665    2.1229    0.0000 C   0  0  0  0  0  0  0  0  0  0  0  0
  -11.3406    2.6041    0.0000 H   0  0  0  0  0  0  0  0  0  0  0  0
  -12.1276    3.5422    0.0000 H   0  0  0  0  0  0  0  0  0  0  0  0
  -14.3700    2.6702    0.0000 C   0  0  0  0  0  0  0  0  0  0  0  0
  -15.2297    4.0196    0.0000 H   0  0  0  0  0  0  0  0  0  0  0  0
  -14.0238    4.2322    0.0000 H   0  0  0  0  0  0  0  0  0  0  0  0
  -15.5957    1.6417    0.0000 O   0  0  0  0  0  0  0  0  0  0  0  0
  -17.0992    2.1889    0.0000 H   0  0  0  0  0  0  0  0  0  0  0  0
   -9.6995    0.8000    0.0000 C   0  0  0  0  0  0  0  0  0  0  0  0
   -9.0871    2.2782    0.0000 H   0  0  0  0  0  0  0  0  0  0  0  0
  -10.3119    2.2782    0.0000 H   0  0  0  0  0  0  0  0  0  0  0  0
   -8.3138    0.0001    0.0000 C   0  0  0  0  0  0  0  0  0  0  0  0
   -8.9262   -1.4782    0.0000 H   0  0  0  0  0  0  0  0  0  0  0  0
   -7.7014   -1.4782    0.0000 H   0  0  0  0  0  0  0  0  0  0  0  0
   -6.9281    0.8000    0.0000 C   0  0  0  0  0  0  0  0  0  0  0  0
   -6.3157    2.2782    0.0000 H   0  0  0  0  0  0  0  0  0  0  0  0
   -7.5405    2.2782    0.0000 H   0  0  0  0  0  0  0  0  0  0  0  0
   -5.5425    0.0001    0.0000 C   0  0  0  0  0  0  0  0  0  0  0  0
   -6.1549   -1.4782    0.0000 H   0  0  0  0  0  0  0  0  0  0  0  0
   -4.9305   -1.4782    0.0000 H   0  0  0  0  0  0  0  0  0  0  0  0
   -4.1568    0.8000    0.0000 C   0  0  0  0  0  0  0  0  0  0  0  0
   -3.5448    2.2782    0.0000 H   0  0  0  0  0  0  0  0  0  0  0  0
   -4.7692    2.2782    0.0000 H   0  0  0  0  0  0  0  0  0  0  0  0
   -2.7711    0.0001    0.0000 C   0  0  0  0  0  0  0  0  0  0  0  0
   -3.3835   -1.4782    0.0000 H   0  0  0  0  0  0  0  0  0  0  0  0
   -2.1591   -1.4782    0.0000 H   0  0  0  0  0  0  0  0  0  0  0  0
   -1.3855    0.8000    0.0000 C   0  0  0  0  0  0  0  0  0  0  0  0
   -0.7735    2.2782    0.0000 H   0  0  0  0  0  0  0  0  0  0  0  0
   -1.9979    2.2782    0.0000 H   0  0  0  0  0  0  0  0  0  0  0  0
    0.0002    0.0001    0.0000 C   0  0  0  0  0  0  0  0  0  0  0  0
   -0.6122   -1.4782    0.0000 H   0  0  0  0  0  0  0  0  0  0  0  0
    0.6122   -1.4782    0.0000 H   0  0  0  0  0  0  0  0  0  0  0  0
    1.3854    0.8000    0.0000 C   0  0  0  0  0  0  0  0  0  0  0  0
    1.9979    2.2782    0.0000 H   0  0  0  0  0  0  0  0  0  0  0  0
    0.7735    2.2782    0.0000 H   0  0  0  0  0  0  0  0  0  0  0  0
    2.7711    0.0001    0.0000 C   0  0  0  0  0  0  0  0  0  0  0  0
    2.1591   -1.4782    0.0000 H   0  0  0  0  0  0  0  0  0  0  0  0
    3.3835   -1.4782    0.0000 H   0  0  0  0  0  0  0  0  0  0  0  0
    4.1568    0.8000    0.0000 C   0  0  0  0  0  0  0  0  0  0  0  0
    4.7692    2.2782    0.0000 H   0  0  0  0  0  0  0  0  0  0  0  0
    3.5448    2.2782    0.0000 H   0  0  0  0  0  0  0  0  0  0  0  0
    5.5425    0.0001    0.0000 C   0  0  0  0  0  0  0  0  0  0  0  0
    4.9305   -1.4782    0.0000 H   0  0  0  0  0  0  0  0  0  0  0  0
    6.1549   -1.4782    0.0000 H   0  0  0  0  0  0  0  0  0  0  0  0
    6.9281    0.8000    0.0000 C   0  0  0  0  0  0  0  0  0  0  0  0
    7.5405    2.2782    0.0000 H   0  0  0  0  0  0  0  0  0  0  0  0
    6.3157    2.2782    0.0000 H   0  0  0  0  0  0  0  0  0  0  0  0
    8.3138    0.0001    0.0000 C   0  0  0  0  0  0  0  0  0  0  0  0
    7.7014   -1.4782    0.0000 H   0  0  0  0  0  0  0  0  0  0  0  0
    8.9262   -1.4782    0.0000 H   0  0  0  0  0  0  0  0  0  0  0  0
    9.6995    0.8000    0.0000 C   0  0  0  0  0  0  0  0  0  0  0  0
   11.0851    1.6000    0.0000 H   0  0  0  0  0  0  0  0  0  0  0  0
   11.0851    0.0001    0.0000 H   0  0  0  0  0  0  0  0  0  0  0  0
    9.6995    2.4000    0.0000 H   0  0  0  0  0  0  0  0  0  0  0  0
  1  2  2  0  0  0  0
  1  3  1  0  0  0  0
  3  4  1  0  0  0  0
  4  5  1  0  0  0  0
  4  6  1  0  0  0  0
  4  7  1  0  0  0  0
  7  8  1  0  0  0  0
  7  9  1  0  0  0  0
  7 10  1  0  0  0  0
 10 11  1  0  0  0  0
  3 12  1  0  0  0  0
 12 13  1  0  0  0  0
 12 14  1  0  0  0  0
 12 15  1  0  0  0  0
 15 16  1  0  0  0  0
 15 17  1  0  0  0  0
 15 18  1  0  0  0  0
 18 19  1  0  0  0  0
  1 20  1  0  0  0  0
 20 21  1  0  0  0  0
 20 22  1  0  0  0  0
 20 23  1  0  0  0  0
 23 24  1  0  0  0  0
 23 25  1  0  0  0  0
 23 26  1  0  0  0  0
 26 27  1  0  0  0  0
 26 28  1  0  0  0  0
 26 29  1  0  0  0  0
 29 30  1  0  0  0  0
 29 31  1  0  0  0  0
 29 32  1  0  0  0  0
 32 33  1  0  0  0  0
 32 34  1  0  0  0  0
 32 35  1  0  0  0  0
 35 36  1  0  0  0  0
 35 37  1  0  0  0  0
 35 38  1  0  0  0  0
 38 39  1  0  0  0  0
 38 40  1  0  0  0  0
 38 41  1  0  0  0  0
 41 42  1  0  0  0  0
 41 43  1  0  0  0  0
 41 44  1  0  0  0  0
 44 45  1  0  0  0  0
 44 46  1  0  0  0  0
 44 47  1  0  0  0  0
 47 48  1  0  0  0  0
 47 49  1  0  0  0  0
 47 50  1  0  0  0  0
 50 51  1  0  0  0  0
 50 52  1  0  0  0  0
 50 53  1  0  0  0  0
 53 54  1  0  0  0  0
 53 55  1  0  0  0  0
 53 56  1  0  0  0  0
 56 57  1  0  0  0  0
 56 58  1  0  0  0  0
 56 59  1  0  0  0  0
 59 60  1  0  0  0  0
 59 61  1  0  0  0  0
 59 62  1  0  0  0  0
 62 63  1  0  0  0  0
 62 64  1  0  0  0  0
 62 65  1  0  0  0  0
M  END
> <ChemID>
101125

> <source_casrn>
7545-24-6

> <CAS>
68155-06-6

> <SMILES>
O=C(N(CCO)CCO)CCCCCCCCCCCCCCC

> <NAME>
Hexadecanamide, N,N-bis(2-hydroxyethyl)-

> <preferred_name>
Amides, C12-18, N,N-bis(hydroxyethyl)

> <iupac>
N,N-bis(2-hydroxyethyl)hexadecanamide

> <MPID>
101107

> <dsstox_substance_id>
DTXSID6029414

> <Canonical_QSARr>
CCCCCCCCCCCCCCCC(=O)N(CCO)CCO

> <InChI_Code_QSARr>
InChI=1S/C20H41NO3/c1-2-3-4-5-6-7-8-9-10-11-12-13-14-15-20(24)21(16-18-22)17-19-23/h22-23H,2-19H2,1H3

> <InChI Key_QSARr>
VJESJEJNMGVQLZ-UHFFFAOYSA-N

> <Salt_Solvent>
?

> <Ready_Biodeg>
1.0

$$$$
101130
  -INDIGO-08031722522D

 27 27  0  0  0  0  0  0  0  0999 V2000
    6.0257   -1.0285    0.0000 O   0  0  0  0  0  0  0  0  0  0  0  0
    5.2257    0.3572    0.0000 C   0  0  0  0  0  0  0  0  0  0  0  0
    6.7292    0.9044    0.0000 H   0  0  0  0  0  0  0  0  0  0  0  0
    4.9478    1.9329    0.0000 H   0  0  0  0  0  0  0  0  0  0  0  0
    3.6256    0.3572    0.0000 C   0  0  0  0  0  0  0  0  0  0  0  0
    3.9036    1.9329    0.0000 H   0  0  0  0  0  0  0  0  0  0  0  0
    2.1222    0.9044    0.0000 H   0  0  0  0  0  0  0  0  0  0  0  0
    2.8256   -1.0285    0.0000 N   0  0  0  0  0  0  0  0  0  0  0  0
    1.2256   -1.0285    0.0000 C   0  0  0  0  0  0  0  0  0  0  0  0
    1.0168   -2.6147    0.0000 H   0  0  0  0  0  0  0  0  0  0  0  0
   -0.0437   -2.0024    0.0000 H   0  0  0  0  0  0  0  0  0  0  0  0
    0.0000   -0.0000    0.0000 C   0  0  0  0  0  0  0  0  0  0  0  0
    1.0285    1.2257    0.0000 H   0  0  0  0  0  0  0  0  0  0  0  0
   -1.0284    1.2257    0.0000 C   0  0  0  0  0  0  0  0  0  0  0  0
   -2.0569    2.4513    0.0000 H   0  0  0  0  0  0  0  0  0  0  0  0
   -2.6042    0.9478    0.0000 H   0  0  0  0  0  0  0  0  0  0  0  0
   -0.4812    2.7292    0.0000 H   0  0  0  0  0  0  0  0  0  0  0  0
   -1.2257   -1.0285    0.0000 C   0  0  0  0  0  0  0  0  0  0  0  0
   -2.4514   -2.0569    0.0000 H   0  0  0  0  0  0  0  0  0  0  0  0
   -0.9478   -2.6042    0.0000 H   0  0  0  0  0  0  0  0  0  0  0  0
   -2.7292   -0.4812    0.0000 H   0  0  0  0  0  0  0  0  0  0  0  0
    3.6256   -2.4141    0.0000 C   0  0  0  0  0  0  0  0  0  0  0  0
    2.1222   -2.9614    0.0000 H   0  0  0  0  0  0  0  0  0  0  0  0
    3.9036   -3.9898    0.0000 H   0  0  0  0  0  0  0  0  0  0  0  0
    5.2257   -2.4141    0.0000 C   0  0  0  0  0  0  0  0  0  0  0  0
    4.9478   -3.9898    0.0000 H   0  0  0  0  0  0  0  0  0  0  0  0
    6.7292   -2.9614    0.0000 H   0  0  0  0  0  0  0  0  0  0  0  0
  1  2  1  0  0  0  0
  2  3  1  0  0  0  0
  2  4  1  0  0  0  0
  2  5  1  0  0  0  0
  5  6  1  0  0  0  0
  5  7  1  0  0  0  0
  5  8  1  0  0  0  0
  8  9  1  0  0  0  0
  9 10  1  0  0  0  0
  9 11  1  0  0  0  0
  9 12  1  0  0  0  0
 12 13  1  0  0  0  0
 12 14  1  0  0  0  0
 14 15  1  0  0  0  0
 14 16  1  0  0  0  0
 14 17  1  0  0  0  0
 12 18  1  0  0  0  0
 18 19  1  0  0  0  0
 18 20  1  0  0  0  0
 18 21  1  0  0  0  0
  8 22  1  0  0  0  0
 22 23  1  0  0  0  0
 22 24  1  0  0  0  0
 22 25  1  0  0  0  0
 25  1  1  0  0  0  0
 25 26  1  0  0  0  0
 25 27  1  0  0  0  0
M  END
> <ChemID>
101130

> <source_casrn>
10315-98-7

> <CAS>
10315-98-7

> <SMILES>
CC(C)CN1CCOCC1

> <NAME>
N-Isobutylmorpholine

> <preferred_name>
4-Isobutylmorpholine

> <iupac>
4-(2-methylpropyl)morpholine

> <MPID>
101111

> <dsstox_substance_id>
DTXSID30145675

> <Canonical_QSARr>
CC(C)CN1CCOCC1

> <InChI_Code_QSARr>
InChI=1S/C8H17NO/c1-8(2)7-9-3-5-10-6-4-9/h8H,3-7H2,1-2H3

> <InChI Key_QSARr>
QKVSMSABRNCNRS-UHFFFAOYSA-N

> <Salt_Solvent>
?

> <Ready_Biodeg>
0.0

$$$$
101137
  -INDIGO-08031722522D

 15 15  0  0  0  0  0  0  0  0999 V2000
    1.6000   -0.0000    0.0000 C   0  0  0  0  0  0  0  0  0  0  0  0
    3.2000   -0.0000    0.0000 Cl  0  0  0  0  0  0  0  0  0  0  0  0
    2.4001   -1.3856    0.0000 Cl  0  0  0  0  0  0  0  0  0  0  0  0
    2.4001    1.3856    0.0000 Cl  0  0  0  0  0  0  0  0  0  0  0  0
    0.0000   -0.0000    0.0000 C   0  0  0  0  0  0  0  0  0  0  0  0
   -0.7999    1.3856    0.0000 C   0  0  0  0  0  0  0  0  0  0  0  0
    0.0000    2.7713    0.0000 Cl  0  0  0  0  0  0  0  0  0  0  0  0
   -2.4001    1.3856    0.0000 C   0  0  0  0  0  0  0  0  0  0  0  0
   -3.2000    2.7713    0.0000 H   0  0  0  0  0  0  0  0  0  0  0  0
   -3.2000   -0.0000    0.0000 C   0  0  0  0  0  0  0  0  0  0  0  0
   -4.8000   -0.0000    0.0000 Cl  0  0  0  0  0  0  0  0  0  0  0  0
   -2.4001   -1.3856    0.0000 C   0  0  0  0  0  0  0  0  0  0  0  0
   -3.2000   -2.7713    0.0000 H   0  0  0  0  0  0  0  0  0  0  0  0
   -0.8001   -1.3856    0.0000 C   0  0  0  0  0  0  0  0  0  0  0  0
    0.0000   -2.7713    0.0000 H   0  0  0  0  0  0  0  0  0  0  0  0
  1  2  1  0  0  0  0
  1  3  1  0  0  0  0
  1  4  1  0  0  0  0
  1  5  1  0  0  0  0
  5  6  1  0  0  0  0
  6  7  1  0  0  0  0
  6  8  2  0  0  0  0
  8  9  1  0  0  0  0
  8 10  1  0  0  0  0
 10 11  1  0  0  0  0
 10 12  2  0  0  0  0
 12 13  1  0  0  0  0
 12 14  1  0  0  0  0
 14  5  2  0  0  0  0
 14 15  1  0  0  0  0
M  END
> <ChemID>
101137

> <source_casrn>
13014-18-1

> <CAS>
13014-18-1

> <SMILES>
Clc1cc(Cl)c(cc1)C(Cl)(Cl)Cl

> <NAME>
Benzene, 2,4-dichloro-1-(trichloromethyl)-

> <preferred_name>
2,4-Dichloro-1-(trichloromethyl)benzene

> <iupac>
2,4-dichloro-1-(trichloromethyl)benzene

> <MPID>
101118

> <dsstox_substance_id>
DTXSID3025839

> <Canonical_QSARr>
Clc1cc(Cl)c(cc1)C(Cl)(Cl)Cl

> <InChI_Code_QSARr>
InChI=1S/C7H3Cl5/c8-4-1-2-5(6(9)3-4)7(10,11)12/h1-3H

> <InChI Key_QSARr>
KZSNBJMYJWDVTK-UHFFFAOYSA-N

> <Salt_Solvent>
?

> <Ready_Biodeg>
0.0

$$$$
101141
  -INDIGO-08031722522D

 22 21  0  0  0  0  0  0  0  0999 V2000
    2.7712   -0.0000    0.0000 N   0  0  0  0  0  0  0  0  0  0  0  0
    2.7712   -1.6000    0.0000 H   0  0  0  0  0  0  0  0  0  0  0  0
    1.3856    0.8000    0.0000 C   0  0  0  0  0  0  0  0  0  0  0  0
    0.7734    2.2782    0.0000 H   0  0  0  0  0  0  0  0  0  0  0  0
    1.9979    2.2782    0.0000 H   0  0  0  0  0  0  0  0  0  0  0  0
    0.0001   -0.0000    0.0000 C   0  0  0  0  0  0  0  0  0  0  0  0
    0.6122   -1.4782    0.0000 H   0  0  0  0  0  0  0  0  0  0  0  0
   -0.6123   -1.4782    0.0000 H   0  0  0  0  0  0  0  0  0  0  0  0
   -1.3856    0.8000    0.0000 C   0  0  0  0  0  0  0  0  0  0  0  0
   -1.9979    2.2782    0.0000 H   0  0  0  0  0  0  0  0  0  0  0  0
   -0.7733    2.2782    0.0000 H   0  0  0  0  0  0  0  0  0  0  0  0
   -2.7713   -0.0000    0.0000 C   0  0  0  0  0  0  0  0  0  0  0  0
   -4.1569   -0.8000    0.0000 H   0  0  0  0  0  0  0  0  0  0  0  0
   -4.1569    0.8000    0.0000 H   0  0  0  0  0  0  0  0  0  0  0  0
   -2.7713   -1.6000    0.0000 H   0  0  0  0  0  0  0  0  0  0  0  0
    4.1569    0.8000    0.0000 C   0  0  0  0  0  0  0  0  0  0  0  0
    3.5446    2.2782    0.0000 H   0  0  0  0  0  0  0  0  0  0  0  0
    4.7692    2.2782    0.0000 H   0  0  0  0  0  0  0  0  0  0  0  0
    5.5425   -0.0000    0.0000 C   0  0  0  0  0  0  0  0  0  0  0  0
    6.9282   -0.8000    0.0000 H   0  0  0  0  0  0  0  0  0  0  0  0
    6.9282    0.8000    0.0000 H   0  0  0  0  0  0  0  0  0  0  0  0
    5.5425   -1.6000    0.0000 H   0  0  0  0  0  0  0  0  0  0  0  0
  1  2  1  0  0  0  0
  1  3  1  0  0  0  0
  3  4  1  0  0  0  0
  3  5  1  0  0  0  0
  3  6  1  0  0  0  0
  6  7  1  0  0  0  0
  6  8  1  0  0  0  0
  6  9  1  0  0  0  0
  9 10  1  0  0  0  0
  9 11  1  0  0  0  0
  9 12  1  0  0  0  0
 12 13  1  0  0  0  0
 12 14  1  0  0  0  0
 12 15  1  0  0  0  0
  1 16  1  0  0  0  0
 16 17  1  0  0  0  0
 16 18  1  0  0  0  0
 16 19  1  0  0  0  0
 19 20  1  0  0  0  0
 19 21  1  0  0  0  0
 19 22  1  0  0  0  0
M  END
> <ChemID>
101141

> <source_casrn>
13360-63-9

> <CAS>
13360-63-9

> <SMILES>
CCCCNCC

> <NAME>
1-Butanamine, N-ethyl-

> <preferred_name>
N-Ethyl-N-butylamine

> <iupac>
N-ethylbutan-1-amine

> <MPID>
101122

> <dsstox_substance_id>
DTXSID6025276

> <Canonical_QSARr>
CCCCNCC

> <InChI_Code_QSARr>
InChI=1S/C6H15N/c1-3-5-6-7-4-2/h7H,3-6H2,1-2H3

> <InChI Key_QSARr>
QHCCDDQKNUYGNC-UHFFFAOYSA-N

> <Salt_Solvent>
?

> <Ready_Biodeg>
1.0

$$$$
101145
  -INDIGO-08031722522D

 35 34  0  0  0  0  0  0  0  0999 V2000
   -0.0000    3.2000    0.0000 O   0  0  0  0  0  0  0  0  0  0  0  0
   -1.3857    2.3999    0.0000 P   0  0  0  0  0  0  0  0  0  0  0  0
   -1.3857    4.0000    0.0000 O   0  0  0  0  0  0  0  0  0  0  0  0
   -0.1600    5.0285    0.0000 C   0  0  0  0  0  0  0  0  0  0  0  0
    0.8685    3.8028    0.0000 H   0  0  0  0  0  0  0  0  0  0  0  0
    1.0657    6.0569    0.0000 C   0  0  0  0  0  0  0  0  0  0  0  0
    2.2914    7.0854    0.0000 H   0  0  0  0  0  0  0  0  0  0  0  0
    0.7878    7.6326    0.0000 H   0  0  0  0  0  0  0  0  0  0  0  0
    2.5691    5.5097    0.0000 Cl  0  0  0  0  0  0  0  0  0  0  0  0
   -1.1885    6.2541    0.0000 C   0  0  0  0  0  0  0  0  0  0  0  0
   -2.2169    7.4798    0.0000 H   0  0  0  0  0  0  0  0  0  0  0  0
   -2.7641    5.9764    0.0000 H   0  0  0  0  0  0  0  0  0  0  0  0
   -0.6413    7.7576    0.0000 H   0  0  0  0  0  0  0  0  0  0  0  0
   -2.7712    3.2000    0.0000 O   0  0  0  0  0  0  0  0  0  0  0  0
   -4.1569    2.3999    0.0000 C   0  0  0  0  0  0  0  0  0  0  0  0
   -3.3569    1.0143    0.0000 H   0  0  0  0  0  0  0  0  0  0  0  0
   -5.5425    1.6000    0.0000 C   0  0  0  0  0  0  0  0  0  0  0  0
   -6.9282    0.8000    0.0000 H   0  0  0  0  0  0  0  0  0  0  0  0
   -6.9282    2.3999    0.0000 H   0  0  0  0  0  0  0  0  0  0  0  0
   -5.5425   -0.0001    0.0000 Cl  0  0  0  0  0  0  0  0  0  0  0  0
   -4.7041    3.9035    0.0000 C   0  0  0  0  0  0  0  0  0  0  0  0
   -6.2799    4.1814    0.0000 H   0  0  0  0  0  0  0  0  0  0  0  0
   -5.7326    2.6778    0.0000 H   0  0  0  0  0  0  0  0  0  0  0  0
   -5.2514    5.4071    0.0000 H   0  0  0  0  0  0  0  0  0  0  0  0
   -0.0000    1.6000    0.0000 O   0  0  0  0  0  0  0  0  0  0  0  0
   -0.0000   -0.0001    0.0000 C   0  0  0  0  0  0  0  0  0  0  0  0
   -0.0000   -1.6000    0.0000 H   0  0  0  0  0  0  0  0  0  0  0  0
    1.6000   -0.0001    0.0000 C   0  0  0  0  0  0  0  0  0  0  0  0
    3.2000   -0.0001    0.0000 H   0  0  0  0  0  0  0  0  0  0  0  0
    2.4001   -1.3857    0.0000 H   0  0  0  0  0  0  0  0  0  0  0  0
    2.4001    1.3857    0.0000 Cl  0  0  0  0  0  0  0  0  0  0  0  0
   -1.6001   -0.0001    0.0000 C   0  0  0  0  0  0  0  0  0  0  0  0
   -3.1999   -0.0001    0.0000 H   0  0  0  0  0  0  0  0  0  0  0  0
   -2.4000   -1.3857    0.0000 H   0  0  0  0  0  0  0  0  0  0  0  0
   -2.4000    1.3857    0.0000 H   0  0  0  0  0  0  0  0  0  0  0  0
  1  2  2  0  0  0  0
  2  3  1  0  0  0  0
  3  4  1  0  0  0  0
  4  5  1  0  0  0  0
  4  6  1  0  0  0  0
  6  7  1  0  0  0  0
  6  8  1  0  0  0  0
  6  9  1  0  0  0  0
  4 10  1  0  0  0  0
 10 11  1  0  0  0  0
 10 12  1  0  0  0  0
 10 13  1  0  0  0  0
  2 14  1  0  0  0  0
 14 15  1  0  0  0  0
 15 16  1  0  0  0  0
 15 17  1  0  0  0  0
 17 18  1  0  0  0  0
 17 19  1  0  0  0  0
 17 20  1  0  0  0  0
 15 21  1  0  0  0  0
 21 22  1  0  0  0  0
 21 23  1  0  0  0  0
 21 24  1  0  0  0  0
  2 25  1  0  0  0  0
 25 26  1  0  0  0  0
 26 27  1  0  0  0  0
 26 28  1  0  0  0  0
 28 29  1  0  0  0  0
 28 30  1  0  0  0  0
 28 31  1  0  0  0  0
 26 32  1  0  0  0  0
 32 33  1  0  0  0  0
 32 34  1  0  0  0  0
 32 35  1  0  0  0  0
M  END
> <ChemID>
101145

> <source_casrn>
13674-84-5

> <CAS>
13674-84-5

> <SMILES>
O=P(OC(CCl)C)(OC(CCl)C)OC(CCl)C

> <NAME>
2-Propanol, 1-chloro-, phosphate (3:1)

> <preferred_name>
Tris(2-chloroisopropyl)phosphate

> <iupac>
C9H18Cl3O4P

> <MPID>
101126

> <dsstox_substance_id>
DTXSID5026259

> <Canonical_QSARr>
CC(CCl)OP(=O)(OC(C)CCl)OC(C)CCl

> <InChI_Code_QSARr>
InChI=1S/C9H18Cl3O4P/c1-7(4-10)14-17(13,15-8(2)5-11)16-9(3)6-12/h7-9H,4-6H2,1-3H3

> <InChI Key_QSARr>
KVMPUXDNESXNOH-UHFFFAOYSA-N

> <Salt_Solvent>
?

> <Ready_Biodeg>
0.0

$$$$
101149
  -INDIGO-08031722522D

 16 15  0  0  0  0  0  0  0  0999 V2000
    2.7292   -0.4813    0.0000 C   0  0  0  0  0  0  0  0  0  0  0  0
    3.9548   -1.5097    0.0000 H   0  0  0  0  0  0  0  0  0  0  0  0
    4.2327    0.0660    0.0000 H   0  0  0  0  0  0  0  0  0  0  0  0
    2.4513   -2.0569    0.0000 H   0  0  0  0  0  0  0  0  0  0  0  0
    1.5036    0.5472    0.0000 C   0  0  0  0  0  0  0  0  0  0  0  0
    1.1572    2.1093    0.0000 H   0  0  0  0  0  0  0  0  0  0  0  0
    2.3631    1.8967    0.0000 H   0  0  0  0  0  0  0  0  0  0  0  0
   -0.0000    0.0000    0.0000 C   0  0  0  0  0  0  0  0  0  0  0  0
    0.8000   -1.3856    0.0000 H   0  0  0  0  0  0  0  0  0  0  0  0
   -0.8000    1.3856    0.0000 N   0  0  0  0  0  0  0  0  0  0  0  0
   -0.0000    2.7713    0.0000 H   0  0  0  0  0  0  0  0  0  0  0  0
   -2.4000    1.3856    0.0000 H   0  0  0  0  0  0  0  0  0  0  0  0
   -1.3857   -0.8000    0.0000 C   0  0  0  0  0  0  0  0  0  0  0  0
   -2.7713   -1.6000    0.0000 H   0  0  0  0  0  0  0  0  0  0  0  0
   -1.3857   -2.4000    0.0000 H   0  0  0  0  0  0  0  0  0  0  0  0
   -2.7713    0.0000    0.0000 H   0  0  0  0  0  0  0  0  0  0  0  0
  1  2  1  0  0  0  0
  1  3  1  0  0  0  0
  1  4  1  0  0  0  0
  1  5  1  0  0  0  0
  5  6  1  0  0  0  0
  5  7  1  0  0  0  0
  5  8  1  0  0  0  0
  8  9  1  0  0  0  0
  8 10  1  0  0  0  0
 10 11  1  0  0  0  0
 10 12  1  0  0  0  0
  8 13  1  0  0  0  0
 13 14  1  0  0  0  0
 13 15  1  0  0  0  0
 13 16  1  0  0  0  0
M  END
> <ChemID>
101149

> <source_casrn>
13952-84-6

> <CAS>
13952-84-6

> <SMILES>
CCC(C)N

> <NAME>
2-Butanamine

> <preferred_name>
2-Butanamine

> <iupac>
butan-2-amine

> <MPID>
101130

> <dsstox_substance_id>
DTXSID4022284

> <Canonical_QSARr>
CCC(C)N

> <InChI_Code_QSARr>
InChI=1S/C4H11N/c1-3-4(2)5/h4H,3,5H2,1-2H3

> <InChI Key_QSARr>
BHRZNVHARXXAHW-UHFFFAOYSA-N

> <Salt_Solvent>
?

> <Ready_Biodeg>
1.0

$$$$
101155
  -INDIGO-08031722522D

 27 27  0  0  0  0  0  0  0  0999 V2000
    1.6001    0.0000    0.0000 C   0  0  0  0  0  0  0  0  0  0  0  0
    2.4001    1.3856    0.0000 O   0  0  0  0  0  0  0  0  0  0  0  0
    0.0000    0.0000    0.0000 N   0  0  0  0  0  0  0  0  0  0  0  0
   -0.8000    1.3856    0.0000 C   0  0  0  0  0  0  0  0  0  0  0  0
   -1.6000    2.7713    0.0000 H   0  0  0  0  0  0  0  0  0  0  0  0
   -2.4000    1.3856    0.0000 H   0  0  0  0  0  0  0  0  0  0  0  0
    0.0000    2.7713    0.0000 H   0  0  0  0  0  0  0  0  0  0  0  0
   -0.8000   -1.3856    0.0000 C   0  0  0  0  0  0  0  0  0  0  0  0
   -1.6000   -2.7713    0.0000 H   0  0  0  0  0  0  0  0  0  0  0  0
   -2.4000   -1.3856    0.0000 H   0  0  0  0  0  0  0  0  0  0  0  0
    0.0000   -2.7713    0.0000 H   0  0  0  0  0  0  0  0  0  0  0  0
    2.4001   -1.3856    0.0000 N   0  0  0  0  0  0  0  0  0  0  0  0
    1.6001   -2.7713    0.0000 H   0  0  0  0  0  0  0  0  0  0  0  0
    4.0001   -1.3856    0.0000 C   0  0  0  0  0  0  0  0  0  0  0  0
    4.7999    0.0000    0.0000 C   0  0  0  0  0  0  0  0  0  0  0  0
    4.0001    1.3856    0.0000 H   0  0  0  0  0  0  0  0  0  0  0  0
    6.3999    0.0000    0.0000 C   0  0  0  0  0  0  0  0  0  0  0  0
    7.2000    1.3856    0.0000 Cl  0  0  0  0  0  0  0  0  0  0  0  0
    7.2000   -1.3856    0.0000 C   0  0  0  0  0  0  0  0  0  0  0  0
    8.8000   -1.3856    0.0000 C   0  0  0  0  0  0  0  0  0  0  0  0
   10.4000   -1.3856    0.0000 H   0  0  0  0  0  0  0  0  0  0  0  0
    9.6000   -2.7713    0.0000 H   0  0  0  0  0  0  0  0  0  0  0  0
    9.6000    0.0000    0.0000 H   0  0  0  0  0  0  0  0  0  0  0  0
    6.3999   -2.7713    0.0000 C   0  0  0  0  0  0  0  0  0  0  0  0
    7.2000   -4.1569    0.0000 H   0  0  0  0  0  0  0  0  0  0  0  0
    4.7999   -2.7713    0.0000 C   0  0  0  0  0  0  0  0  0  0  0  0
    3.9999   -4.1569    0.0000 H   0  0  0  0  0  0  0  0  0  0  0  0
  1  2  2  0  0  0  0
  1  3  1  0  0  0  0
  3  4  1  0  0  0  0
  4  5  1  0  0  0  0
  4  6  1  0  0  0  0
  4  7  1  0  0  0  0
  3  8  1  0  0  0  0
  8  9  1  0  0  0  0
  8 10  1  0  0  0  0
  8 11  1  0  0  0  0
  1 12  1  0  0  0  0
 12 13  1  0  0  0  0
 12 14  1  0  0  0  0
 14 15  1  0  0  0  0
 15 16  1  0  0  0  0
 15 17  2  0  0  0  0
 17 18  1  0  0  0  0
 17 19  1  0  0  0  0
 19 20  1  0  0  0  0
 20 21  1  0  0  0  0
 20 22  1  0  0  0  0
 20 23  1  0  0  0  0
 19 24  2  0  0  0  0
 24 25  1  0  0  0  0
 24 26  1  0  0  0  0
 26 14  2  0  0  0  0
 26 27  1  0  0  0  0
M  END
> <ChemID>
101155

> <source_casrn>
15545-48-9

> <CAS>
15545-48-9

> <SMILES>
Cc1ccc(cc1Cl)NC(=O)N(C)C

> <NAME>
N'-(3-CHLORO-4-METHYLPHENYL)-N,N-DIMETHYLUREA

> <preferred_name>
Chlorotoluron

> <iupac>
3-(3-chloro-4-methylphenyl)-1,1-dimethylurea

> <MPID>
101134

> <dsstox_substance_id>
DTXSID8052853

> <Canonical_QSARr>
Cc1ccc(cc1Cl)NC(=O)N(C)C

> <InChI_Code_QSARr>
InChI=1S/C10H13ClN2O/c1-7-4-5-8(6-9(7)11)12-10(14)13(2)3/h4-6H,1-3H3,(H,12,14)

> <InChI Key_QSARr>
JXCGFZXSOMJFOA-UHFFFAOYSA-N

> <Salt_Solvent>
?

> <Ready_Biodeg>
0.0

$$$$
101160
  -INDIGO-08031722522D

 21 22  0  0  0  0  0  0  0  0999 V2000
    2.3161    0.5964    0.0000 C   0  0  0  0  0  0  0  0  0  0  0  0
    3.8787    0.9398    0.0000 C   0  0  0  0  0  0  0  0  0  0  0  0
    4.3626    2.4649    0.0000 H   0  0  0  0  0  0  0  0  0  0  0  0
    4.9576   -0.2418    0.0000 C   0  0  0  0  0  0  0  0  0  0  0  0
    6.0364   -1.4233    0.0000 H   0  0  0  0  0  0  0  0  0  0  0  0
    6.5202    0.1017    0.0000 H   0  0  0  0  0  0  0  0  0  0  0  0
    4.4736   -1.7668    0.0000 H   0  0  0  0  0  0  0  0  0  0  0  0
    1.0821    1.3606    0.0000 C   0  0  0  0  0  0  0  0  0  0  0  0
    2.4084    2.2556    0.0000 H   0  0  0  0  0  0  0  0  0  0  0  0
    0.8100    2.9373    0.0000 C   0  0  0  0  0  0  0  0  0  0  0  0
    1.1646    4.4975    0.0000 H   0  0  0  0  0  0  0  0  0  0  0  0
   -0.0645    1.7071    0.0000 C   0  0  0  0  0  0  0  0  0  0  0  0
   -1.5976    2.1648    0.0000 H   0  0  0  0  0  0  0  0  0  0  0  0
   -0.0000   -0.0000    0.0000 C   0  0  0  0  0  0  0  0  0  0  0  0
   -0.1819   -1.5896    0.0000 H   0  0  0  0  0  0  0  0  0  0  0  0
   -1.4644   -0.4133    0.0000 C   0  0  0  0  0  0  0  0  0  0  0  0
   -1.6836   -1.9983    0.0000 H   0  0  0  0  0  0  0  0  0  0  0  0
   -2.8286    0.4228    0.0000 H   0  0  0  0  0  0  0  0  0  0  0  0
    1.4101   -0.7757    0.0000 C   0  0  0  0  0  0  0  0  0  0  0  0
    2.7686   -1.6211    0.0000 H   0  0  0  0  0  0  0  0  0  0  0  0
    0.6015   -2.1564    0.0000 H   0  0  0  0  0  0  0  0  0  0  0  0
  1  2  2  0  0  0  0
  2  3  1  0  0  0  0
  2  4  1  0  0  0  0
  4  5  1  0  0  0  0
  4  6  1  0  0  0  0
  4  7  1  0  0  0  0
  1  8  1  0  0  0  0
  8  9  1  0  0  0  0
  8 10  1  0  0  0  0
 10 11  1  0  0  0  0
 10 12  2  0  0  0  0
 12 13  1  0  0  0  0
 12 14  1  0  0  0  0
 14 15  1  0  0  0  0
 14 16  1  0  0  0  0
 16  8  1  0  0  0  0
 16 17  1  0  0  0  0
 16 18  1  0  0  0  0
 14 19  1  0  0  0  0
 19  1  1  0  0  0  0
 19 20  1  0  0  0  0
 19 21  1  0  0  0  0
M  END
> <ChemID>
101160

> <source_casrn>
16219-75-3

> <CAS>
16219-75-3

> <SMILES>
C(C(C=CC12)C1)(=CC)C2

> <NAME>
Bicyclo 2.2.1 hept-2-ene, 5-ethylidene-

> <preferred_name>
5-Ethylidene-2-norbornene

> <iupac>
5-ethylidenebicyclo[2.2.1]hept-2-ene

> <MPID>
101138

> <dsstox_substance_id>
DTXSID1025306

> <Canonical_QSARr>
CC=C1CC2CC1C=C2

> <InChI_Code_QSARr>
InChI=1S/C9H12/c1-2-8-5-7-3-4-9(8)6-7/h2-4,7,9H,5-6H2,1H3/b8-2+

> <InChI Key_QSARr>
OJOWICOBYCXEKR-KRXBUXKQSA-N

> <Salt_Solvent>
?

> <Ready_Biodeg>
0.0

$$$$
101164
  -INDIGO-08031722522D

 14 14  0  0  0  0  0  0  0  0999 V2000
    2.4000   -1.3856    0.0000 O   0  0  0  0  0  0  0  0  0  0  0  0
    1.6000   -0.0000    0.0000 N   0  0  0  0  0  0  0  0  0  0  0  0
    2.4000    1.3856    0.0000 O   0  0  0  0  0  0  0  0  0  0  0  0
    0.0000   -0.0000    0.0000 C   0  0  0  0  0  0  0  0  0  0  0  0
   -0.8000    1.3856    0.0000 C   0  0  0  0  0  0  0  0  0  0  0  0
    0.0000    2.7713    0.0000 Cl  0  0  0  0  0  0  0  0  0  0  0  0
   -2.4000    1.3856    0.0000 C   0  0  0  0  0  0  0  0  0  0  0  0
   -3.2000    2.7713    0.0000 H   0  0  0  0  0  0  0  0  0  0  0  0
   -3.2000   -0.0000    0.0000 C   0  0  0  0  0  0  0  0  0  0  0  0
   -4.8000   -0.0000    0.0000 Cl  0  0  0  0  0  0  0  0  0  0  0  0
   -2.4000   -1.3856    0.0000 C   0  0  0  0  0  0  0  0  0  0  0  0
   -3.2000   -2.7713    0.0000 H   0  0  0  0  0  0  0  0  0  0  0  0
   -0.8000   -1.3856    0.0000 C   0  0  0  0  0  0  0  0  0  0  0  0
    0.0000   -2.7713    0.0000 Cl  0  0  0  0  0  0  0  0  0  0  0  0
  1  2  1  0  0  0  0
  2  3  2  0  0  0  0
  2  4  1  0  0  0  0
  4  5  1  0  0  0  0
  5  6  1  0  0  0  0
  5  7  2  0  0  0  0
  7  8  1  0  0  0  0
  7  9  1  0  0  0  0
  9 10  1  0  0  0  0
  9 11  2  0  0  0  0
 11 12  1  0  0  0  0
 11 13  1  0  0  0  0
 13  4  2  0  0  0  0
 13 14  1  0  0  0  0
M  CHG  2   1  -1   2   1
M  END
> <ChemID>
101164

> <source_casrn>
18708-70-8

> <CAS>
18708-70-8

> <SMILES>
[O-][N+](=O)c1c(Cl)cc(Cl)cc1Cl

> <NAME>
Benzene, 1,3,5-trichloro-2-nitro-

> <preferred_name>
2,4,6-Trichloronitrobenzene

> <iupac>
1,3,5-trichloro-2-nitrobenzene

> <MPID>
101142

> <dsstox_substance_id>
DTXSID0026204

> <Canonical_QSARr>
[O-][N+](=O)c1c(Cl)cc(Cl)cc1Cl

> <InChI_Code_QSARr>
InChI=1S/C6H2Cl3NO2/c7-3-1-4(8)6(10(11)12)5(9)2-3/h1-2H

> <InChI Key_QSARr>
AEBJDOTVYMITIA-UHFFFAOYSA-N

> <Salt_Solvent>
?

> <Ready_Biodeg>
0.0

$$$$
101168
  -INDIGO-08031722522D

 17 16  0  0  0  0  0  0  0  0999 V2000
    1.3857    0.8000    0.0000 C   0  0  0  0  0  0  0  0  0  0  0  0
    1.3857    2.4000    0.0000 O   0  0  0  0  0  0  0  0  0  0  0  0
    2.7713    0.0000    0.0000 N   0  0  0  0  0  0  0  0  0  0  0  0
    2.7713   -1.6000    0.0000 H   0  0  0  0  0  0  0  0  0  0  0  0
    4.1569    0.8000    0.0000 C   0  0  0  0  0  0  0  0  0  0  0  0
    5.5426    1.6000    0.0000 H   0  0  0  0  0  0  0  0  0  0  0  0
    5.5426    0.0000    0.0000 H   0  0  0  0  0  0  0  0  0  0  0  0
    4.1569    2.4000    0.0000 H   0  0  0  0  0  0  0  0  0  0  0  0
   -0.0001    0.0000    0.0000 C   0  0  0  0  0  0  0  0  0  0  0  0
    0.6122   -1.4782    0.0000 H   0  0  0  0  0  0  0  0  0  0  0  0
   -0.6124   -1.4782    0.0000 H   0  0  0  0  0  0  0  0  0  0  0  0
   -1.3857    0.8000    0.0000 C   0  0  0  0  0  0  0  0  0  0  0  0
   -2.7713    0.0000    0.0000 C   0  0  0  0  0  0  0  0  0  0  0  0
   -4.1569   -0.8000    0.0000 H   0  0  0  0  0  0  0  0  0  0  0  0
   -4.1569    0.8000    0.0000 H   0  0  0  0  0  0  0  0  0  0  0  0
   -2.7713   -1.6000    0.0000 H   0  0  0  0  0  0  0  0  0  0  0  0
   -1.3857    2.4000    0.0000 O   0  0  0  0  0  0  0  0  0  0  0  0
  1  2  2  0  0  0  0
  1  3  1  0  0  0  0
  3  4  1  0  0  0  0
  3  5  1  0  0  0  0
  5  6  1  0  0  0  0
  5  7  1  0  0  0  0
  5  8  1  0  0  0  0
  1  9  1  0  0  0  0
  9 10  1  0  0  0  0
  9 11  1  0  0  0  0
  9 12  1  0  0  0  0
 12 13  1  0  0  0  0
 13 14  1  0  0  0  0
 13 15  1  0  0  0  0
 13 16  1  0  0  0  0
 12 17  2  0  0  0  0
M  END
> <ChemID>
101168

> <source_casrn>
20306-75-6

> <CAS>
20306-75-6

> <SMILES>
CC(=O)CC(=O)NC

> <NAME>
Butanamide, N-methyl-3-oxo-

> <preferred_name>
N-Methyl-3-oxobutyramide

> <iupac>
N-methyl-3-oxobutanamide

> <MPID>
101146

> <dsstox_substance_id>
DTXSID9040138

> <Canonical_QSARr>
CC(=O)CC(=O)NC

> <InChI_Code_QSARr>
InChI=1S/C5H9NO2/c1-4(7)3-5(8)6-2/h3H2,1-2H3,(H,6,8)

> <InChI Key_QSARr>
ATWLCPHWYPSRBQ-UHFFFAOYSA-N

> <Salt_Solvent>
?

> <Ready_Biodeg>
1.0

$$$$
101179
  -INDIGO-08031722522D

 24 23  0  0  0  0  0  0  0  0999 V2000
   -2.3758    1.6635    0.0000 C   0  0  0  0  0  0  0  0  0  0  0  0
   -0.8000    1.3856    0.0000 O   0  0  0  0  0  0  0  0  0  0  0  0
   -0.0001   -0.0000    0.0000 C   0  0  0  0  0  0  0  0  0  0  0  0
    0.8001   -1.3856    0.0000 H   0  0  0  0  0  0  0  0  0  0  0  0
    1.3856    0.8000    0.0000 C   0  0  0  0  0  0  0  0  0  0  0  0
    0.7734    2.2782    0.0000 H   0  0  0  0  0  0  0  0  0  0  0  0
    1.9979    2.2782    0.0000 H   0  0  0  0  0  0  0  0  0  0  0  0
    2.7712   -0.0000    0.0000 O   0  0  0  0  0  0  0  0  0  0  0  0
    4.1569    0.8000    0.0000 C   0  0  0  0  0  0  0  0  0  0  0  0
    4.1569    2.4000    0.0000 O   0  0  0  0  0  0  0  0  0  0  0  0
    5.5425   -0.0000    0.0000 C   0  0  0  0  0  0  0  0  0  0  0  0
    6.9282   -0.8000    0.0000 H   0  0  0  0  0  0  0  0  0  0  0  0
    6.9282    0.8000    0.0000 H   0  0  0  0  0  0  0  0  0  0  0  0
    5.5425   -1.6000    0.0000 H   0  0  0  0  0  0  0  0  0  0  0  0
   -1.3856   -0.8000    0.0000 C   0  0  0  0  0  0  0  0  0  0  0  0
   -2.9719   -0.5912    0.0000 H   0  0  0  0  0  0  0  0  0  0  0  0
   -2.3597    0.4694    0.0000 H   0  0  0  0  0  0  0  0  0  0  0  0
   -1.3856   -2.4000    0.0000 O   0  0  0  0  0  0  0  0  0  0  0  0
   -2.7712   -3.2000    0.0000 H   0  0  0  0  0  0  0  0  0  0  0  0
   -3.4041    0.4378    0.0000 O   0  0  0  0  0  0  0  0  0  0  0  0
   -2.9229    3.1670    0.0000 C   0  0  0  0  0  0  0  0  0  0  0  0
   -3.4702    4.6705    0.0000 H   0  0  0  0  0  0  0  0  0  0  0  0
   -4.4986    3.4448    0.0000 H   0  0  0  0  0  0  0  0  0  0  0  0
   -1.8945    4.3927    0.0000 H   0  0  0  0  0  0  0  0  0  0  0  0
  1  2  1  0  0  0  0
  2  3  1  0  0  0  0
  3  4  1  0  0  0  0
  3  5  1  0  0  0  0
  5  6  1  0  0  0  0
  5  7  1  0  0  0  0
  5  8  1  0  0  0  0
  8  9  1  0  0  0  0
  9 10  2  0  0  0  0
  9 11  1  0  0  0  0
 11 12  1  0  0  0  0
 11 13  1  0  0  0  0
 11 14  1  0  0  0  0
  3 15  1  0  0  0  0
 15 16  1  0  0  0  0
 15 17  1  0  0  0  0
 15 18  1  0  0  0  0
 18 19  1  0  0  0  0
  1 20  2  0  0  0  0
  1 21  1  0  0  0  0
 21 22  1  0  0  0  0
 21 23  1  0  0  0  0
 21 24  1  0  0  0  0
M  END
> <ChemID>
101179

> <source_casrn>
25395-31-7

> <CAS>
25395-31-7

> <SMILES>
CC(=O)OCC(CO)OC(C)=O

> <NAME>
1,2,3-PROPANETRIOL, DIACETATE

> <preferred_name>
1,2,3-Propanetriol, diacetate

> <iupac>
3-hydroxypropane-1,2-diyl diacetate

> <MPID>
101151

> <dsstox_substance_id>
DTXSID5041223

> <Canonical_QSARr>
CC(=O)OCC(CO)OC(C)=O

> <InChI_Code_QSARr>
InChI=1S/C7H12O5/c1-5(9)11-4-7(3-8)12-6(2)10/h7-8H,3-4H2,1-2H3

> <InChI Key_QSARr>
UXDDRFCJKNROTO-UHFFFAOYSA-N

> <Salt_Solvent>
?

> <Ready_Biodeg>
1.0

$$$$
101185
  -INDIGO-08031722522D

 23 22  0  0  0  0  0  0  0  0999 V2000
    4.1569    2.4000    0.0000 Br  0  0  0  0  0  0  0  0  0  0  0  0
    4.1569    0.8000    0.0000 C   0  0  0  0  0  0  0  0  0  0  0  0
    5.5426    1.6000    0.0000 H   0  0  0  0  0  0  0  0  0  0  0  0
    5.5426    0.0000    0.0000 H   0  0  0  0  0  0  0  0  0  0  0  0
    2.7713    0.0000    0.0000 C   0  0  0  0  0  0  0  0  0  0  0  0
    3.3835   -1.4782    0.0000 H   0  0  0  0  0  0  0  0  0  0  0  0
    2.1590   -1.4782    0.0000 H   0  0  0  0  0  0  0  0  0  0  0  0
    1.3856    0.8000    0.0000 C   0  0  0  0  0  0  0  0  0  0  0  0
    0.7733    2.2782    0.0000 H   0  0  0  0  0  0  0  0  0  0  0  0
    1.9980    2.2782    0.0000 H   0  0  0  0  0  0  0  0  0  0  0  0
   -0.0001    0.0000    0.0000 C   0  0  0  0  0  0  0  0  0  0  0  0
    0.6123   -1.4782    0.0000 H   0  0  0  0  0  0  0  0  0  0  0  0
   -0.6122   -1.4782    0.0000 H   0  0  0  0  0  0  0  0  0  0  0  0
   -1.3856    0.8000    0.0000 C   0  0  0  0  0  0  0  0  0  0  0  0
   -1.9979    2.2782    0.0000 H   0  0  0  0  0  0  0  0  0  0  0  0
   -0.7734    2.2782    0.0000 H   0  0  0  0  0  0  0  0  0  0  0  0
   -2.7713    0.0000    0.0000 C   0  0  0  0  0  0  0  0  0  0  0  0
   -2.1589   -1.4782    0.0000 H   0  0  0  0  0  0  0  0  0  0  0  0
   -3.3836   -1.4782    0.0000 H   0  0  0  0  0  0  0  0  0  0  0  0
   -4.1570    0.8000    0.0000 C   0  0  0  0  0  0  0  0  0  0  0  0
   -5.5425    0.0000    0.0000 O   0  0  0  0  0  0  0  0  0  0  0  0
   -6.9282    0.8000    0.0000 H   0  0  0  0  0  0  0  0  0  0  0  0
   -4.1570    2.4000    0.0000 O   0  0  0  0  0  0  0  0  0  0  0  0
  1  2  1  0  0  0  0
  2  3  1  0  0  0  0
  2  4  1  0  0  0  0
  2  5  1  0  0  0  0
  5  6  1  0  0  0  0
  5  7  1  0  0  0  0
  5  8  1  0  0  0  0
  8  9  1  0  0  0  0
  8 10  1  0  0  0  0
  8 11  1  0  0  0  0
 11 12  1  0  0  0  0
 11 13  1  0  0  0  0
 11 14  1  0  0  0  0
 14 15  1  0  0  0  0
 14 16  1  0  0  0  0
 14 17  1  0  0  0  0
 17 18  1  0  0  0  0
 17 19  1  0  0  0  0
 17 20  1  0  0  0  0
 20 21  1  0  0  0  0
 21 22  1  0  0  0  0
 20 23  2  0  0  0  0
M  END
> <ChemID>
101185

> <source_casrn>
30515-28-7

> <CAS>
30515-28-7

> <SMILES>
OC(=O)CCCCCCBr

> <NAME>
7-Bromoheptanoic acid

> <preferred_name>
7-Bromoheptanoic acid

> <iupac>
7-Bromoheptanoic acid

> <MPID>
101155

> <dsstox_substance_id>
DTXSID30184584

> <Canonical_QSARr>
OC(=O)CCCCCCBr

> <InChI_Code_QSARr>
InChI=1S/C7H13BrO2/c8-6-4-2-1-3-5-7(9)10/h1-6H2,(H,9,10)

> <InChI Key_QSARr>
JLPQXFFMVVPIRW-UHFFFAOYSA-N

> <Salt_Solvent>
?

> <Ready_Biodeg>
1.0

$$$$
101190
  -INDIGO-08031722522D

 55 54  0  0  0  0  0  0  0  0999 V2000
    1.5999    0.0001    0.0000 C   0  0  0  0  0  0  0  0  0  0  0  0
    2.8694   -0.9739    0.0000 H   0  0  0  0  0  0  0  0  0  0  0  0
    1.8088   -1.5864    0.0000 H   0  0  0  0  0  0  0  0  0  0  0  0
    2.6284    1.2256    0.0000 C   0  0  0  0  0  0  0  0  0  0  0  0
    1.5475    2.4053    0.0000 H   0  0  0  0  0  0  0  0  0  0  0  0
    2.6983    2.8242    0.0000 H   0  0  0  0  0  0  0  0  0  0  0  0
    4.2041    0.9478    0.0000 C   0  0  0  0  0  0  0  0  0  0  0  0
    5.2850   -0.2319    0.0000 H   0  0  0  0  0  0  0  0  0  0  0  0
    4.1344   -0.6505    0.0000 H   0  0  0  0  0  0  0  0  0  0  0  0
    5.2325    2.1736    0.0000 N   0  0  0  0  0  0  0  0  0  0  0  0
    6.8083    1.8956    0.0000 C   0  0  0  0  0  0  0  0  0  0  0  0
    8.3840    1.6179    0.0000 H   0  0  0  0  0  0  0  0  0  0  0  0
    7.8367    3.1214    0.0000 H   0  0  0  0  0  0  0  0  0  0  0  0
    7.3556    0.3921    0.0000 H   0  0  0  0  0  0  0  0  0  0  0  0
    4.6855    3.6769    0.0000 C   0  0  0  0  0  0  0  0  0  0  0  0
    4.1382    5.1805    0.0000 H   0  0  0  0  0  0  0  0  0  0  0  0
    5.7139    4.9027    0.0000 H   0  0  0  0  0  0  0  0  0  0  0  0
    3.1097    3.9549    0.0000 H   0  0  0  0  0  0  0  0  0  0  0  0
    0.0001    0.0001    0.0000 N   0  0  0  0  0  0  0  0  0  0  0  0
   -0.8001    1.3857    0.0000 C   0  0  0  0  0  0  0  0  0  0  0  0
   -0.5912    2.9719    0.0000 H   0  0  0  0  0  0  0  0  0  0  0  0
    0.4694    2.3597    0.0000 H   0  0  0  0  0  0  0  0  0  0  0  0
   -2.3758    1.6635    0.0000 C   0  0  0  0  0  0  0  0  0  0  0  0
   -2.8569    0.1376    0.0000 H   0  0  0  0  0  0  0  0  0  0  0  0
   -3.7949    0.9246    0.0000 H   0  0  0  0  0  0  0  0  0  0  0  0
   -2.9229    3.1670    0.0000 C   0  0  0  0  0  0  0  0  0  0  0  0
   -2.4417    4.6929    0.0000 H   0  0  0  0  0  0  0  0  0  0  0  0
   -1.5038    3.9057    0.0000 H   0  0  0  0  0  0  0  0  0  0  0  0
   -4.4986    3.4448    0.0000 N   0  0  0  0  0  0  0  0  0  0  0  0
   -5.0459    4.9483    0.0000 C   0  0  0  0  0  0  0  0  0  0  0  0
   -5.5930    6.4518    0.0000 H   0  0  0  0  0  0  0  0  0  0  0  0
   -6.6216    5.2261    0.0000 H   0  0  0  0  0  0  0  0  0  0  0  0
   -4.0175    6.1741    0.0000 H   0  0  0  0  0  0  0  0  0  0  0  0
   -5.5270    2.2192    0.0000 C   0  0  0  0  0  0  0  0  0  0  0  0
   -6.5555    0.9935    0.0000 H   0  0  0  0  0  0  0  0  0  0  0  0
   -7.1028    2.4970    0.0000 H   0  0  0  0  0  0  0  0  0  0  0  0
   -4.9797    0.7157    0.0000 H   0  0  0  0  0  0  0  0  0  0  0  0
   -0.8001   -1.3856    0.0000 C   0  0  0  0  0  0  0  0  0  0  0  0
   -2.2782   -1.9980    0.0000 H   0  0  0  0  0  0  0  0  0  0  0  0
   -2.2782   -0.7734    0.0000 H   0  0  0  0  0  0  0  0  0  0  0  0
   -0.2528   -2.8891    0.0000 C   0  0  0  0  0  0  0  0  0  0  0  0
    1.3093   -2.5429    0.0000 H   0  0  0  0  0  0  0  0  0  0  0  0
    1.0966   -3.7488    0.0000 H   0  0  0  0  0  0  0  0  0  0  0  0
   -1.2812   -4.1149    0.0000 C   0  0  0  0  0  0  0  0  0  0  0  0
   -2.8432   -4.4611    0.0000 H   0  0  0  0  0  0  0  0  0  0  0  0
   -2.6305   -3.2552    0.0000 H   0  0  0  0  0  0  0  0  0  0  0  0
   -0.7339   -5.6184    0.0000 N   0  0  0  0  0  0  0  0  0  0  0  0
   -1.7626   -6.8440    0.0000 C   0  0  0  0  0  0  0  0  0  0  0  0
   -2.7910   -8.0697    0.0000 H   0  0  0  0  0  0  0  0  0  0  0  0
   -1.2153   -8.3475    0.0000 H   0  0  0  0  0  0  0  0  0  0  0  0
   -3.3381   -6.5662    0.0000 H   0  0  0  0  0  0  0  0  0  0  0  0
    0.8416   -5.8962    0.0000 C   0  0  0  0  0  0  0  0  0  0  0  0
    2.4173   -6.1740    0.0000 H   0  0  0  0  0  0  0  0  0  0  0  0
    1.3889   -7.3997    0.0000 H   0  0  0  0  0  0  0  0  0  0  0  0
    1.8703   -4.6704    0.0000 H   0  0  0  0  0  0  0  0  0  0  0  0
  1  2  1  0  0  0  0
  1  3  1  0  0  0  0
  1  4  1  0  0  0  0
  4  5  1  0  0  0  0
  4  6  1  0  0  0  0
  4  7  1  0  0  0  0
  7  8  1  0  0  0  0
  7  9  1  0  0  0  0
  7 10  1  0  0  0  0
 10 11  1  0  0  0  0
 11 12  1  0  0  0  0
 11 13  1  0  0  0  0
 11 14  1  0  0  0  0
 10 15  1  0  0  0  0
 15 16  1  0  0  0  0
 15 17  1  0  0  0  0
 15 18  1  0  0  0  0
  1 19  1  0  0  0  0
 19 20  1  0  0  0  0
 20 21  1  0  0  0  0
 20 22  1  0  0  0  0
 20 23  1  0  0  0  0
 23 24  1  0  0  0  0
 23 25  1  0  0  0  0
 23 26  1  0  0  0  0
 26 27  1  0  0  0  0
 26 28  1  0  0  0  0
 26 29  1  0  0  0  0
 29 30  1  0  0  0  0
 30 31  1  0  0  0  0
 30 32  1  0  0  0  0
 30 33  1  0  0  0  0
 29 34  1  0  0  0  0
 34 35  1  0  0  0  0
 34 36  1  0  0  0  0
 34 37  1  0  0  0  0
 19 38  1  0  0  0  0
 38 39  1  0  0  0  0
 38 40  1  0  0  0  0
 38 41  1  0  0  0  0
 41 42  1  0  0  0  0
 41 43  1  0  0  0  0
 41 44  1  0  0  0  0
 44 45  1  0  0  0  0
 44 46  1  0  0  0  0
 44 47  1  0  0  0  0
 47 48  1  0  0  0  0
 48 49  1  0  0  0  0
 48 50  1  0  0  0  0
 48 51  1  0  0  0  0
 47 52  1  0  0  0  0
 52 53  1  0  0  0  0
 52 54  1  0  0  0  0
 52 55  1  0  0  0  0
M  END
> <ChemID>
101190

> <source_casrn>
33329-35-0

> <CAS>
33329-35-0

> <SMILES>
N(CCCN(CCCN(C)C)CCCN(C)C)(C)C

> <NAME>
1,3-Propanediamine, N,N-bis 3-(dimethylamino)propyl -N',N'-dimethyl-

> <preferred_name>
N,N-Bis[3-(dimethylamino)propyl]-N',N'-dimethylpropane-1,3-diamine

> <iupac>
N,N-bis[3-(dimethylamino)propyl]-N',N'-dimethylpropane-1,3-diamine

> <MPID>
101159

> <dsstox_substance_id>
DTXSID5052703

> <Canonical_QSARr>
CN(C)CCCN(CCCN(C)C)CCCN(C)C

> <InChI_Code_QSARr>
InChI=1S/C15H36N4/c1-16(2)10-7-13-19(14-8-11-17(3)4)15-9-12-18(5)6/h7-15H2,1-6H3

> <InChI Key_QSARr>
DTKANQSCBACEPK-UHFFFAOYSA-N

> <Salt_Solvent>
?

> <Ready_Biodeg>
0.0

$$$$
101195
  -INDIGO-08031722522D

 51 50  0  0  0  0  0  0  0  0999 V2000
   -6.9280   -0.8000    0.0000 C   0  0  0  0  0  0  0  0  0  0  0  0
   -6.3160   -2.2782    0.0000 H   0  0  0  0  0  0  0  0  0  0  0  0
   -7.5404   -2.2782    0.0000 H   0  0  0  0  0  0  0  0  0  0  0  0
   -5.5427    0.0000    0.0000 C   0  0  0  0  0  0  0  0  0  0  0  0
   -6.1547    1.4782    0.0000 H   0  0  0  0  0  0  0  0  0  0  0  0
   -4.9303    1.4782    0.0000 H   0  0  0  0  0  0  0  0  0  0  0  0
   -4.1570   -0.8000    0.0000 C   0  0  0  0  0  0  0  0  0  0  0  0
   -3.5446   -2.2782    0.0000 H   0  0  0  0  0  0  0  0  0  0  0  0
   -4.7693   -2.2782    0.0000 H   0  0  0  0  0  0  0  0  0  0  0  0
   -2.7713    0.0000    0.0000 C   0  0  0  0  0  0  0  0  0  0  0  0
   -3.3836    1.4782    0.0000 H   0  0  0  0  0  0  0  0  0  0  0  0
   -2.1589    1.4782    0.0000 H   0  0  0  0  0  0  0  0  0  0  0  0
   -1.3856   -0.8000    0.0000 C   0  0  0  0  0  0  0  0  0  0  0  0
   -0.7732   -2.2782    0.0000 H   0  0  0  0  0  0  0  0  0  0  0  0
   -1.9979   -2.2782    0.0000 H   0  0  0  0  0  0  0  0  0  0  0  0
    0.0001    0.0000    0.0000 C   0  0  0  0  0  0  0  0  0  0  0  0
   -0.6122    1.4782    0.0000 H   0  0  0  0  0  0  0  0  0  0  0  0
    0.6121    1.4782    0.0000 H   0  0  0  0  0  0  0  0  0  0  0  0
    1.3858   -0.8000    0.0000 C   0  0  0  0  0  0  0  0  0  0  0  0
    1.9978   -2.2782    0.0000 H   0  0  0  0  0  0  0  0  0  0  0  0
    0.7735   -2.2782    0.0000 H   0  0  0  0  0  0  0  0  0  0  0  0
    2.7712    0.0000    0.0000 C   0  0  0  0  0  0  0  0  0  0  0  0
    2.1592    1.4782    0.0000 H   0  0  0  0  0  0  0  0  0  0  0  0
    3.3835    1.4782    0.0000 H   0  0  0  0  0  0  0  0  0  0  0  0
    4.1569   -0.8000    0.0000 C   0  0  0  0  0  0  0  0  0  0  0  0
    4.7692   -2.2782    0.0000 H   0  0  0  0  0  0  0  0  0  0  0  0
    3.5445   -2.2782    0.0000 H   0  0  0  0  0  0  0  0  0  0  0  0
    5.5426    0.0000    0.0000 C   0  0  0  0  0  0  0  0  0  0  0  0
    4.9302    1.4782    0.0000 H   0  0  0  0  0  0  0  0  0  0  0  0
    6.1549    1.4782    0.0000 H   0  0  0  0  0  0  0  0  0  0  0  0
    6.9283   -0.8000    0.0000 C   0  0  0  0  0  0  0  0  0  0  0  0
    7.5406   -2.2782    0.0000 H   0  0  0  0  0  0  0  0  0  0  0  0
    6.3159   -2.2782    0.0000 H   0  0  0  0  0  0  0  0  0  0  0  0
    8.3140    0.0000    0.0000 C   0  0  0  0  0  0  0  0  0  0  0  0
    7.7016    1.4782    0.0000 H   0  0  0  0  0  0  0  0  0  0  0  0
    8.9263    1.4782    0.0000 H   0  0  0  0  0  0  0  0  0  0  0  0
    9.6997   -0.8000    0.0000 C   0  0  0  0  0  0  0  0  0  0  0  0
   10.3117   -2.2782    0.0000 H   0  0  0  0  0  0  0  0  0  0  0  0
    9.0873   -2.2782    0.0000 H   0  0  0  0  0  0  0  0  0  0  0  0
   11.0850    0.0000    0.0000 C   0  0  0  0  0  0  0  0  0  0  0  0
   10.4730    1.4782    0.0000 H   0  0  0  0  0  0  0  0  0  0  0  0
   11.6974    1.4782    0.0000 H   0  0  0  0  0  0  0  0  0  0  0  0
   12.4707   -0.8000    0.0000 O   0  0  0  0  0  0  0  0  0  0  0  0
   13.8564    0.0000    0.0000 H   0  0  0  0  0  0  0  0  0  0  0  0
   -8.3137    0.0000    0.0000 C   0  0  0  0  0  0  0  0  0  0  0  0
   -8.9261    1.4782    0.0000 H   0  0  0  0  0  0  0  0  0  0  0  0
   -7.7017    1.4782    0.0000 H   0  0  0  0  0  0  0  0  0  0  0  0
   -9.6994   -0.8000    0.0000 C   0  0  0  0  0  0  0  0  0  0  0  0
  -11.0851   -1.6000    0.0000 H   0  0  0  0  0  0  0  0  0  0  0  0
  -11.0851    0.0000    0.0000 H   0  0  0  0  0  0  0  0  0  0  0  0
   -9.6994   -2.4000    0.0000 H   0  0  0  0  0  0  0  0  0  0  0  0
  1  2  1  0  0  0  0
  1  3  1  0  0  0  0
  1  4  1  0  0  0  0
  4  5  1  0  0  0  0
  4  6  1  0  0  0  0
  4  7  1  0  0  0  0
  7  8  1  0  0  0  0
  7  9  1  0  0  0  0
  7 10  1  0  0  0  0
 10 11  1  0  0  0  0
 10 12  1  0  0  0  0
 10 13  1  0  0  0  0
 13 14  1  0  0  0  0
 13 15  1  0  0  0  0
 13 16  1  0  0  0  0
 16 17  1  0  0  0  0
 16 18  1  0  0  0  0
 16 19  1  0  0  0  0
 19 20  1  0  0  0  0
 19 21  1  0  0  0  0
 19 22  1  0  0  0  0
 22 23  1  0  0  0  0
 22 24  1  0  0  0  0
 22 25  1  0  0  0  0
 25 26  1  0  0  0  0
 25 27  1  0  0  0  0
 25 28  1  0  0  0  0
 28 29  1  0  0  0  0
 28 30  1  0  0  0  0
 28 31  1  0  0  0  0
 31 32  1  0  0  0  0
 31 33  1  0  0  0  0
 31 34  1  0  0  0  0
 34 35  1  0  0  0  0
 34 36  1  0  0  0  0
 34 37  1  0  0  0  0
 37 38  1  0  0  0  0
 37 39  1  0  0  0  0
 37 40  1  0  0  0  0
 40 41  1  0  0  0  0
 40 42  1  0  0  0  0
 40 43  1  0  0  0  0
 43 44  1  0  0  0  0
  1 45  1  0  0  0  0
 45 46  1  0  0  0  0
 45 47  1  0  0  0  0
 45 48  1  0  0  0  0
 48 49  1  0  0  0  0
 48 50  1  0  0  0  0
 48 51  1  0  0  0  0
M  END
> <ChemID>
101195

> <source_casrn>
36653-82-4

> <CAS>
36653-82-4

> <SMILES>
OCCCCCCCCCCCCCCCC

> <NAME>
Cetylalcohol

> <preferred_name>
1-Hexadecanol

> <iupac>
hexadecan-1-ol

> <MPID>
101164

> <dsstox_substance_id>
DTXSID4027991

> <Canonical_QSARr>
CCCCCCCCCCCCCCCCO

> <InChI_Code_QSARr>
InChI=1S/C16H34O/c1-2-3-4-5-6-7-8-9-10-11-12-13-14-15-16-17/h17H,2-16H2,1H3

> <InChI Key_QSARr>
BXWNKGSJHAJOGX-UHFFFAOYSA-N

> <Salt_Solvent>
?

> <Ready_Biodeg>
1.0

$$$$
101200
  -INDIGO-08031722522D

 41 42  0  0  0  0  0  0  0  0999 V2000
    3.1999    2.7713    0.0000 C   0  0  0  0  0  0  0  0  0  0  0  0
    4.0001    4.1569    0.0000 H   0  0  0  0  0  0  0  0  0  0  0  0
    4.8000    2.7713    0.0000 H   0  0  0  0  0  0  0  0  0  0  0  0
    2.4001    4.1569    0.0000 H   0  0  0  0  0  0  0  0  0  0  0  0
    2.4001    1.3856    0.0000 C   0  0  0  0  0  0  0  0  0  0  0  0
    3.6693    0.4116    0.0000 H   0  0  0  0  0  0  0  0  0  0  0  0
    2.6088   -0.2006    0.0000 H   0  0  0  0  0  0  0  0  0  0  0  0
    0.8000    1.3856    0.0000 C   0  0  0  0  0  0  0  0  0  0  0  0
   -0.4692    2.3597    0.0000 H   0  0  0  0  0  0  0  0  0  0  0  0
    0.5913    2.9719    0.0000 H   0  0  0  0  0  0  0  0  0  0  0  0
    0.0001    0.0001    0.0000 C   0  0  0  0  0  0  0  0  0  0  0  0
    1.2694   -0.9740    0.0000 H   0  0  0  0  0  0  0  0  0  0  0  0
    0.2089   -1.5863    0.0000 H   0  0  0  0  0  0  0  0  0  0  0  0
   -1.5999    0.0001    0.0000 C   0  0  0  0  0  0  0  0  0  0  0  0
   -2.8695    0.9740    0.0000 H   0  0  0  0  0  0  0  0  0  0  0  0
   -1.8090    1.5863    0.0000 H   0  0  0  0  0  0  0  0  0  0  0  0
   -2.4001   -1.3856    0.0000 C   0  0  0  0  0  0  0  0  0  0  0  0
   -1.1306   -2.3597    0.0000 H   0  0  0  0  0  0  0  0  0  0  0  0
   -2.1911   -2.9719    0.0000 H   0  0  0  0  0  0  0  0  0  0  0  0
   -3.9999   -1.3856    0.0000 C   0  0  0  0  0  0  0  0  0  0  0  0
   -4.8001    0.0001    0.0000 C   0  0  0  0  0  0  0  0  0  0  0  0
   -3.9999    1.3856    0.0000 H   0  0  0  0  0  0  0  0  0  0  0  0
   -6.4001    0.0001    0.0000 C   0  0  0  0  0  0  0  0  0  0  0  0
   -7.2000    1.3856    0.0000 H   0  0  0  0  0  0  0  0  0  0  0  0
   -7.2000   -1.3856    0.0000 C   0  0  0  0  0  0  0  0  0  0  0  0
   -8.8001   -1.3856    0.0000 C   0  0  0  0  0  0  0  0  0  0  0  0
   -9.5999    0.0001    0.0000 C   0  0  0  0  0  0  0  0  0  0  0  0
   -8.8001    1.3856    0.0000 H   0  0  0  0  0  0  0  0  0  0  0  0
  -11.2000    0.0001    0.0000 C   0  0  0  0  0  0  0  0  0  0  0  0
  -11.9999    1.3856    0.0000 H   0  0  0  0  0  0  0  0  0  0  0  0
  -11.9999   -1.3856    0.0000 C   0  0  0  0  0  0  0  0  0  0  0  0
  -13.5999   -1.3856    0.0000 C   0  0  0  0  0  0  0  0  0  0  0  0
  -15.2000   -1.3856    0.0000 N   0  0  0  0  0  0  0  0  0  0  0  0
  -11.2000   -2.7712    0.0000 C   0  0  0  0  0  0  0  0  0  0  0  0
  -11.9999   -4.1569    0.0000 H   0  0  0  0  0  0  0  0  0  0  0  0
   -9.5999   -2.7712    0.0000 C   0  0  0  0  0  0  0  0  0  0  0  0
   -8.8001   -4.1569    0.0000 H   0  0  0  0  0  0  0  0  0  0  0  0
   -6.4001   -2.7712    0.0000 C   0  0  0  0  0  0  0  0  0  0  0  0
   -7.2000   -4.1569    0.0000 H   0  0  0  0  0  0  0  0  0  0  0  0
   -4.8001   -2.7712    0.0000 C   0  0  0  0  0  0  0  0  0  0  0  0
   -3.9999   -4.1569    0.0000 H   0  0  0  0  0  0  0  0  0  0  0  0
  1  2  1  0  0  0  0
  1  3  1  0  0  0  0
  1  4  1  0  0  0  0
  1  5  1  0  0  0  0
  5  6  1  0  0  0  0
  5  7  1  0  0  0  0
  5  8  1  0  0  0  0
  8  9  1  0  0  0  0
  8 10  1  0  0  0  0
  8 11  1  0  0  0  0
 11 12  1  0  0  0  0
 11 13  1  0  0  0  0
 11 14  1  0  0  0  0
 14 15  1  0  0  0  0
 14 16  1  0  0  0  0
 14 17  1  0  0  0  0
 17 18  1  0  0  0  0
 17 19  1  0  0  0  0
 17 20  1  0  0  0  0
 20 21  1  0  0  0  0
 21 22  1  0  0  0  0
 21 23  2  0  0  0  0
 23 24  1  0  0  0  0
 23 25  1  0  0  0  0
 25 26  1  0  0  0  0
 26 27  1  0  0  0  0
 27 28  1  0  0  0  0
 27 29  2  0  0  0  0
 29 30  1  0  0  0  0
 29 31  1  0  0  0  0
 31 32  1  0  0  0  0
 32 33  3  0  0  0  0
 31 34  2  0  0  0  0
 34 35  1  0  0  0  0
 34 36  1  0  0  0  0
 36 26  2  0  0  0  0
 36 37  1  0  0  0  0
 25 38  2  0  0  0  0
 38 39  1  0  0  0  0
 38 40  1  0  0  0  0
 40 20  2  0  0  0  0
 40 41  1  0  0  0  0
M  END
> <ChemID>
101200

> <source_casrn>
41122-70-7

> <CAS>
41122-70-7

> <SMILES>
CCCCCCc1ccc(cc1)-c1ccc(cc1)C#N

> <NAME>
1,1'-Biphenyl -4-carbonitrile, 4'-hexyl-

> <preferred_name>
4-Hexyl-4'-cyanobiphenyl

> <iupac>
4'-hexylbiphenyl-4-carbonitrile

> <MPID>
101168

> <dsstox_substance_id>
DTXSID4025404

> <Canonical_QSARr>
CCCCCCc1ccc(cc1)-c1ccc(cc1)C#N

> <InChI_Code_QSARr>
InChI=1S/C19H21N/c1-2-3-4-5-6-16-7-11-18(12-8-16)19-13-9-17(15-20)10-14-19/h7-14H,2-6H2,1H3

> <InChI Key_QSARr>
VADSDVGLFDVIMG-UHFFFAOYSA-N

> <Salt_Solvent>
?

> <Ready_Biodeg>
0.0

$$$$
101204
  -INDIGO-08031722522D

 46 48  0  0  0  0  0  0  0  0999 V2000
   -0.0000   -0.0001    0.0000 C   0  0  0  0  0  0  0  0  0  0  0  0
   -0.8000   -1.3856    0.0000 C   0  0  0  0  0  0  0  0  0  0  0  0
    0.4258   -2.4141    0.0000 H   0  0  0  0  0  0  0  0  0  0  0  0
   -2.1858   -2.1857    0.0000 C   0  0  0  0  0  0  0  0  0  0  0  0
   -3.1444   -2.1354    0.0000 H   0  0  0  0  0  0  0  0  0  0  0  0
   -2.1858   -3.7857    0.0000 C   0  0  0  0  0  0  0  0  0  0  0  0
   -3.5712   -4.5856    0.0000 Cl  0  0  0  0  0  0  0  0  0  0  0  0
   -0.8000   -4.5856    0.0000 Cl  0  0  0  0  0  0  0  0  0  0  0  0
   -1.6000   -0.0001    0.0000 C   0  0  0  0  0  0  0  0  0  0  0  0
   -1.8780    1.5756    0.0000 H   0  0  0  0  0  0  0  0  0  0  0  0
   -3.1035   -0.5472    0.0000 C   0  0  0  0  0  0  0  0  0  0  0  0
   -4.3293    0.4812    0.0000 O   0  0  0  0  0  0  0  0  0  0  0  0
   -5.8325   -0.0660    0.0000 C   0  0  0  0  0  0  0  0  0  0  0  0
   -6.6923   -1.4154    0.0000 H   0  0  0  0  0  0  0  0  0  0  0  0
   -5.4863   -1.6281    0.0000 H   0  0  0  0  0  0  0  0  0  0  0  0
   -7.0584    0.9624    0.0000 C   0  0  0  0  0  0  0  0  0  0  0  0
   -8.5619    0.4153    0.0000 C   0  0  0  0  0  0  0  0  0  0  0  0
   -8.8396   -1.1604    0.0000 H   0  0  0  0  0  0  0  0  0  0  0  0
   -9.7874    1.4437    0.0000 C   0  0  0  0  0  0  0  0  0  0  0  0
  -11.2909    0.8965    0.0000 O   0  0  0  0  0  0  0  0  0  0  0  0
  -12.7945    1.4437    0.0000 C   0  0  0  0  0  0  0  0  0  0  0  0
  -13.0725    3.0193    0.0000 C   0  0  0  0  0  0  0  0  0  0  0  0
  -11.8467    4.0479    0.0000 H   0  0  0  0  0  0  0  0  0  0  0  0
  -14.5760    3.5666    0.0000 C   0  0  0  0  0  0  0  0  0  0  0  0
  -14.8537    5.1423    0.0000 H   0  0  0  0  0  0  0  0  0  0  0  0
  -15.8015    2.5381    0.0000 C   0  0  0  0  0  0  0  0  0  0  0  0
  -17.3051    3.0854    0.0000 H   0  0  0  0  0  0  0  0  0  0  0  0
  -15.5238    0.9624    0.0000 C   0  0  0  0  0  0  0  0  0  0  0  0
  -16.7493   -0.0660    0.0000 H   0  0  0  0  0  0  0  0  0  0  0  0
  -14.0203    0.4153    0.0000 C   0  0  0  0  0  0  0  0  0  0  0  0
  -13.7423   -1.1604    0.0000 H   0  0  0  0  0  0  0  0  0  0  0  0
   -9.5097    3.0193    0.0000 C   0  0  0  0  0  0  0  0  0  0  0  0
  -10.7352    4.0479    0.0000 H   0  0  0  0  0  0  0  0  0  0  0  0
   -8.0062    3.5666    0.0000 C   0  0  0  0  0  0  0  0  0  0  0  0
   -7.7285    5.1423    0.0000 H   0  0  0  0  0  0  0  0  0  0  0  0
   -6.7807    2.5381    0.0000 C   0  0  0  0  0  0  0  0  0  0  0  0
   -5.2771    3.0854    0.0000 H   0  0  0  0  0  0  0  0  0  0  0  0
   -3.5712   -1.3856    0.0000 O   0  0  0  0  0  0  0  0  0  0  0  0
    0.2780    1.5756    0.0000 C   0  0  0  0  0  0  0  0  0  0  0  0
    0.5557    3.1515    0.0000 H   0  0  0  0  0  0  0  0  0  0  0  0
    1.7812    2.1229    0.0000 H   0  0  0  0  0  0  0  0  0  0  0  0
   -0.9479    2.6042    0.0000 H   0  0  0  0  0  0  0  0  0  0  0  0
    1.5035   -0.5472    0.0000 C   0  0  0  0  0  0  0  0  0  0  0  0
    3.0070   -1.0945    0.0000 H   0  0  0  0  0  0  0  0  0  0  0  0
    2.7293    0.4812    0.0000 H   0  0  0  0  0  0  0  0  0  0  0  0
    1.7812   -2.1229    0.0000 H   0  0  0  0  0  0  0  0  0  0  0  0
  1  2  1  0  0  0  0
  2  3  1  0  0  0  0
  2  4  1  0  0  0  0
  4  5  1  0  0  0  0
  4  6  2  0  0  0  0
  6  7  1  0  0  0  0
  6  8  1  0  0  0  0
  2  9  1  0  0  0  0
  9  1  1  0  0  0  0
  9 10  1  0  0  0  0
  9 11  1  0  0  0  0
 11 12  1  0  0  0  0
 12 13  1  0  0  0  0
 13 14  1  0  0  0  0
 13 15  1  0  0  0  0
 13 16  1  0  0  0  0
 16 17  1  0  0  0  0
 17 18  1  0  0  0  0
 17 19  2  0  0  0  0
 19 20  1  0  0  0  0
 20 21  1  0  0  0  0
 21 22  1  0  0  0  0
 22 23  1  0  0  0  0
 22 24  2  0  0  0  0
 24 25  1  0  0  0  0
 24 26  1  0  0  0  0
 26 27  1  0  0  0  0
 26 28  2  0  0  0  0
 28 29  1  0  0  0  0
 28 30  1  0  0  0  0
 30 21  2  0  0  0  0
 30 31  1  0  0  0  0
 19 32  1  0  0  0  0
 32 33  1  0  0  0  0
 32 34  2  0  0  0  0
 34 35  1  0  0  0  0
 34 36  1  0  0  0  0
 36 16  2  0  0  0  0
 36 37  1  0  0  0  0
 11 38  2  0  0  0  0
  1 39  1  0  0  0  0
 39 40  1  0  0  0  0
 39 41  1  0  0  0  0
 39 42  1  0  0  0  0
  1 43  1  0  0  0  0
 43 44  1  0  0  0  0
 43 45  1  0  0  0  0
 43 46  1  0  0  0  0
M  END
> <ChemID>
101204

> <source_casrn>
51877-74-8

> <CAS>
51877-74-8

> <SMILES>
CC1(C)[C@@H]([C@H]1C=C(Cl)Cl)C(=O)OCc1cccc(c1)Oc1ccccc1

> <NAME>
trans-Permethrin

> <preferred_name>
(+)-trans-Permethrin

> <iupac>
3-phenoxybenzyl (1S,3R)-3-(2,2-dichloroethenyl)-2,2-dimethylcyclopropanecarboxylate

> <MPID>
101172

> <dsstox_substance_id>
DTXSID8058116

> <Canonical_QSARr>
CC1(C)C(C1C=C(Cl)Cl)C(=O)OCc1cccc(c1)Oc1ccccc1

> <InChI_Code_QSARr>
InChI=1S/C21H20Cl2O3/c1-21(2)17(12-18(22)23)19(21)20(24)25-13-14-7-6-10-16(11-14)26-15-8-4-3-5-9-15/h3-12,17,19H,13H2,1-2H3

> <InChI Key_QSARr>
RLLPVAHGXHCWKJ-UHFFFAOYSA-N

> <Salt_Solvent>
?

> <Ready_Biodeg>
0.0

$$$$
101208
  -INDIGO-08031722522D

 38 41  0  0  0  0  0  0  0  0999 V2000
    1.3856    4.0000    0.0000 O   0  0  0  0  0  0  0  0  0  0  0  0
    1.3856    2.4000    0.0000 C   0  0  0  0  0  0  0  0  0  0  0  0
    2.7714    1.6000    0.0000 C   0  0  0  0  0  0  0  0  0  0  0  0
    2.7714    0.0000    0.0000 C   0  0  0  0  0  0  0  0  0  0  0  0
    4.1569   -0.8000    0.0000 C   0  0  0  0  0  0  0  0  0  0  0  0
    4.1569   -2.4000    0.0000 H   0  0  0  0  0  0  0  0  0  0  0  0
    5.5427    0.0000    0.0000 C   0  0  0  0  0  0  0  0  0  0  0  0
    6.9282   -0.8000    0.0000 H   0  0  0  0  0  0  0  0  0  0  0  0
    5.5427    1.6000    0.0000 C   0  0  0  0  0  0  0  0  0  0  0  0
    6.9282    2.4000    0.0000 H   0  0  0  0  0  0  0  0  0  0  0  0
    4.1569    2.4000    0.0000 C   0  0  0  0  0  0  0  0  0  0  0  0
    4.1569    4.0000    0.0000 H   0  0  0  0  0  0  0  0  0  0  0  0
    1.3856   -0.8000    0.0000 C   0  0  0  0  0  0  0  0  0  0  0  0
    1.3856   -2.4000    0.0000 O   0  0  0  0  0  0  0  0  0  0  0  0
    0.0001    0.0000    0.0000 C   0  0  0  0  0  0  0  0  0  0  0  0
   -1.3857   -0.8000    0.0000 C   0  0  0  0  0  0  0  0  0  0  0  0
   -1.3857   -2.4000    0.0000 N   0  0  0  0  0  0  0  0  0  0  0  0
   -2.7712   -3.2000    0.0000 H   0  0  0  0  0  0  0  0  0  0  0  0
    0.0001   -3.2000    0.0000 H   0  0  0  0  0  0  0  0  0  0  0  0
   -2.7712    0.0000    0.0000 C   0  0  0  0  0  0  0  0  0  0  0  0
   -4.1570   -0.8000    0.0000 O   0  0  0  0  0  0  0  0  0  0  0  0
   -5.7327   -0.5221    0.0000 C   0  0  0  0  0  0  0  0  0  0  0  0
   -6.2798    0.9814    0.0000 C   0  0  0  0  0  0  0  0  0  0  0  0
   -5.2514    2.2070    0.0000 H   0  0  0  0  0  0  0  0  0  0  0  0
   -7.8556    1.2592    0.0000 C   0  0  0  0  0  0  0  0  0  0  0  0
   -8.4026    2.7627    0.0000 H   0  0  0  0  0  0  0  0  0  0  0  0
   -8.8839    0.0336    0.0000 C   0  0  0  0  0  0  0  0  0  0  0  0
  -10.4597    0.3113    0.0000 Br  0  0  0  0  0  0  0  0  0  0  0  0
   -8.3369   -1.4699    0.0000 C   0  0  0  0  0  0  0  0  0  0  0  0
   -9.3652   -2.6957    0.0000 H   0  0  0  0  0  0  0  0  0  0  0  0
   -6.7611   -1.7478    0.0000 C   0  0  0  0  0  0  0  0  0  0  0  0
   -6.2137   -3.2513    0.0000 H   0  0  0  0  0  0  0  0  0  0  0  0
   -2.7712    1.6000    0.0000 C   0  0  0  0  0  0  0  0  0  0  0  0
   -4.1570    2.4000    0.0000 H   0  0  0  0  0  0  0  0  0  0  0  0
   -1.3857    2.4000    0.0000 C   0  0  0  0  0  0  0  0  0  0  0  0
   -1.3857    4.0000    0.0000 O   0  0  0  0  0  0  0  0  0  0  0  0
   -2.7712    4.8000    0.0000 H   0  0  0  0  0  0  0  0  0  0  0  0
    0.0001    1.6000    0.0000 C   0  0  0  0  0  0  0  0  0  0  0  0
  1  2  2  0  0  0  0
  2  3  1  0  0  0  0
  3  4  1  0  0  0  0
  4  5  2  0  0  0  0
  5  6  1  0  0  0  0
  5  7  1  0  0  0  0
  7  8  1  0  0  0  0
  7  9  2  0  0  0  0
  9 10  1  0  0  0  0
  9 11  1  0  0  0  0
 11  3  2  0  0  0  0
 11 12  1  0  0  0  0
  4 13  1  0  0  0  0
 13 14  2  0  0  0  0
 13 15  1  0  0  0  0
 15 16  1  0  0  0  0
 16 17  1  0  0  0  0
 17 18  1  0  0  0  0
 17 19  1  0  0  0  0
 16 20  2  0  0  0  0
 20 21  1  0  0  0  0
 21 22  1  0  0  0  0
 22 23  1  0  0  0  0
 23 24  1  0  0  0  0
 23 25  2  0  0  0  0
 25 26  1  0  0  0  0
 25 27  1  0  0  0  0
 27 28  1  0  0  0  0
 27 29  2  0  0  0  0
 29 30  1  0  0  0  0
 29 31  1  0  0  0  0
 31 22  2  0  0  0  0
 31 32  1  0  0  0  0
 20 33  1  0  0  0  0
 33 34  1  0  0  0  0
 33 35  2  0  0  0  0
 35 36  1  0  0  0  0
 36 37  1  0  0  0  0
 35 38  1  0  0  0  0
 38  2  1  0  0  0  0
 38 15  2  0  0  0  0
M  END
> <ChemID>
101208

> <source_casrn>
59722-76-8

> <CAS>
59722-76-8

> <SMILES>
Nc1c2c(c(O)cc1Oc1ccc(Br)cc1)C(=O)c1ccccc1C2=O

> <NAME>
9,10-Anthracenedione, 1-amino-2-(4-bromophenoxy)-4-hydroxy-

> <preferred_name>
9,10-Anthracenedione, 1-amino-2-(4-bromophenoxy)-4-hydroxy-

> <iupac>
1-amino-2-(4-bromophenoxy)-4-hydroxyanthracene-9,10-dione

> <MPID>
101176

> <dsstox_substance_id>
DTXSID8069351

> <Canonical_QSARr>
Nc1c2c(c(O)cc1Oc1ccc(Br)cc1)C(=O)c1ccccc1C2=O

> <InChI_Code_QSARr>
InChI=1S/C20H12BrNO4/c21-10-5-7-11(8-6-10)26-15-9-14(23)16-17(18(15)22)20(25)13-4-2-1-3-12(13)19(16)24/h1-9,23H,22H2

> <InChI Key_QSARr>
NXLZYWCPIVGZKC-UHFFFAOYSA-N

> <Salt_Solvent>
?

> <Ready_Biodeg>
0.0

$$$$
101213
  -INDIGO-08031722522D

 42 43  0  0  0  0  0  0  0  0999 V2000
   14.4000   -0.0001    0.0000 O   0  0  0  0  0  0  0  0  0  0  0  0
   13.5999    1.3856    0.0000 N   0  0  0  0  0  0  0  0  0  0  0  0
   14.4000    2.7712    0.0000 O   0  0  0  0  0  0  0  0  0  0  0  0
   12.0000    1.3856    0.0000 C   0  0  0  0  0  0  0  0  0  0  0  0
   11.1999    2.7712    0.0000 C   0  0  0  0  0  0  0  0  0  0  0  0
   12.0000    4.1569    0.0000 H   0  0  0  0  0  0  0  0  0  0  0  0
    9.6000    2.7712    0.0000 C   0  0  0  0  0  0  0  0  0  0  0  0
    8.7999    4.1569    0.0000 Cl  0  0  0  0  0  0  0  0  0  0  0  0
    8.7999    1.3856    0.0000 C   0  0  0  0  0  0  0  0  0  0  0  0
    7.2000    1.3856    0.0000 N   0  0  0  0  0  0  0  0  0  0  0  0
    6.3999   -0.0001    0.0000 N   0  0  0  0  0  0  0  0  0  0  0  0
    4.8000   -0.0001    0.0000 C   0  0  0  0  0  0  0  0  0  0  0  0
    3.9999    1.3856    0.0000 C   0  0  0  0  0  0  0  0  0  0  0  0
    4.8000    2.7713    0.0000 H   0  0  0  0  0  0  0  0  0  0  0  0
    2.4000    1.3856    0.0000 C   0  0  0  0  0  0  0  0  0  0  0  0
    1.5999    2.7713    0.0000 H   0  0  0  0  0  0  0  0  0  0  0  0
    1.5999   -0.0001    0.0000 C   0  0  0  0  0  0  0  0  0  0  0  0
   -0.0000   -0.0001    0.0000 N   0  0  0  0  0  0  0  0  0  0  0  0
   -0.5472    1.5035    0.0000 C   0  0  0  0  0  0  0  0  0  0  0  0
    0.1915    2.9227    0.0000 H   0  0  0  0  0  0  0  0  0  0  0  0
    0.9786    1.9847    0.0000 H   0  0  0  0  0  0  0  0  0  0  0  0
   -2.0507    2.0508    0.0000 C   0  0  0  0  0  0  0  0  0  0  0  0
   -1.7043    3.6129    0.0000 H   0  0  0  0  0  0  0  0  0  0  0  0
   -2.9105    3.4002    0.0000 H   0  0  0  0  0  0  0  0  0  0  0  0
   -3.2766    1.0223    0.0000 C   0  0  0  0  0  0  0  0  0  0  0  0
   -4.5021   -0.0062    0.0000 N   0  0  0  0  0  0  0  0  0  0  0  0
   -1.0286   -1.2257    0.0000 C   0  0  0  0  0  0  0  0  0  0  0  0
   -2.3778   -0.3660    0.0000 H   0  0  0  0  0  0  0  0  0  0  0  0
   -2.5907   -1.5720    0.0000 H   0  0  0  0  0  0  0  0  0  0  0  0
   -0.7505   -2.8014    0.0000 C   0  0  0  0  0  0  0  0  0  0  0  0
   -1.4895   -4.2206    0.0000 H   0  0  0  0  0  0  0  0  0  0  0  0
   -2.2766   -3.2825    0.0000 H   0  0  0  0  0  0  0  0  0  0  0  0
    0.7528   -3.3486    0.0000 C   0  0  0  0  0  0  0  0  0  0  0  0
    2.2563   -3.8959    0.0000 N   0  0  0  0  0  0  0  0  0  0  0  0
    2.4000   -1.3856    0.0000 C   0  0  0  0  0  0  0  0  0  0  0  0
    1.5999   -2.7713    0.0000 H   0  0  0  0  0  0  0  0  0  0  0  0
    3.9999   -1.3856    0.0000 C   0  0  0  0  0  0  0  0  0  0  0  0
    4.8000   -2.7713    0.0000 H   0  0  0  0  0  0  0  0  0  0  0  0
    9.6000   -0.0001    0.0000 C   0  0  0  0  0  0  0  0  0  0  0  0
    8.7999   -1.3856    0.0000 Cl  0  0  0  0  0  0  0  0  0  0  0  0
   11.1999   -0.0001    0.0000 C   0  0  0  0  0  0  0  0  0  0  0  0
   12.0000   -1.3856    0.0000 H   0  0  0  0  0  0  0  0  0  0  0  0
  1  2  1  0  0  0  0
  2  3  2  0  0  0  0
  2  4  1  0  0  0  0
  4  5  1  0  0  0  0
  5  6  1  0  0  0  0
  5  7  2  0  0  0  0
  7  8  1  0  0  0  0
  7  9  1  0  0  0  0
  9 10  1  0  0  0  0
 10 11  2  0  0  0  0
 11 12  1  0  0  0  0
 12 13  1  0  0  0  0
 13 14  1  0  0  0  0
 13 15  2  0  0  0  0
 15 16  1  0  0  0  0
 15 17  1  0  0  0  0
 17 18  1  0  0  0  0
 18 19  1  0  0  0  0
 19 20  1  0  0  0  0
 19 21  1  0  0  0  0
 19 22  1  0  0  0  0
 22 23  1  0  0  0  0
 22 24  1  0  0  0  0
 22 25  1  0  0  0  0
 25 26  3  0  0  0  0
 18 27  1  0  0  0  0
 27 28  1  0  0  0  0
 27 29  1  0  0  0  0
 27 30  1  0  0  0  0
 30 31  1  0  0  0  0
 30 32  1  0  0  0  0
 30 33  1  0  0  0  0
 33 34  3  0  0  0  0
 17 35  2  0  0  0  0
 35 36  1  0  0  0  0
 35 37  1  0  0  0  0
 37 12  2  0  0  0  0
 37 38  1  0  0  0  0
  9 39  2  0  0  0  0
 39 40  1  0  0  0  0
 39 41  1  0  0  0  0
 41  4  2  0  0  0  0
 41 42  1  0  0  0  0
M  CHG  2   1  -1   2   1
M  END
> <ChemID>
101213

> <source_casrn>
67923-43-7

> <CAS>
67923-43-7

> <SMILES>
O=N(=O)c(cc(c(N=Nc(ccc(N(CCC#N)CCC#N)c1)c1)c2Cl)Cl)c2

> <NAME>
Propanenitrile, 3,3'-  4- (2,6-dichloro-4-nitrophenyl)azo phenyl imin

> <preferred_name>
Propanenitrile, 3,3'-[[4-[(2,6-dichloro-4-nitrophenyl)azo]phenyl]imino]bis-

> <iupac>
3-[2-cyanoethyl-[4-(2,6-dichloro-4-nitrophenyl)diazenylphenyl]amino]propanenitrile

> <MPID>
101180

> <dsstox_substance_id>
DTXSID7070846

> <Canonical_QSARr>
N#CCCN(CCC#N)c1ccc(cc1)N=Nc1c(Cl)cc(cc1Cl)[N+]([O-])=O

> <InChI_Code_QSARr>
InChI=1S/C18H14Cl2N6O2/c19-16-11-15(26(27)28)12-17(20)18(16)24-23-13-3-5-14(6-4-13)25(9-1-7-21)10-2-8-22/h3-6,11-12H,1-2,9-10H2/b24-23+

> <InChI Key_QSARr>
MUERWWKQVXXPML-WCWDXBQESA-N

> <Salt_Solvent>
?

> <Ready_Biodeg>
0.0

$$$$
101230
  -INDIGO-08031722522D

 24 26  0  0  0  0  0  0  0  0999 V2000
    0.0001    0.0000    0.0000 C   0  0  0  0  0  0  0  0  0  0  0  0
    0.0001   -1.6000    0.0000 C   0  0  0  0  0  0  0  0  0  0  0  0
    1.3856   -2.4000    0.0000 H   0  0  0  0  0  0  0  0  0  0  0  0
   -1.3855   -2.4000    0.0000 C   0  0  0  0  0  0  0  0  0  0  0  0
   -1.3855   -4.0000    0.0000 H   0  0  0  0  0  0  0  0  0  0  0  0
   -2.7713   -1.6000    0.0000 C   0  0  0  0  0  0  0  0  0  0  0  0
   -4.1569   -2.4000    0.0000 H   0  0  0  0  0  0  0  0  0  0  0  0
   -2.7713    0.0000    0.0000 C   0  0  0  0  0  0  0  0  0  0  0  0
   -4.1569    0.8001    0.0000 C   0  0  0  0  0  0  0  0  0  0  0  0
   -5.6187    0.1492    0.0000 N   0  0  0  0  0  0  0  0  0  0  0  0
   -6.6893    1.3383    0.0000 C   0  0  0  0  0  0  0  0  0  0  0  0
   -8.2804    1.1710    0.0000 H   0  0  0  0  0  0  0  0  0  0  0  0
   -5.8893    2.7239    0.0000 C   0  0  0  0  0  0  0  0  0  0  0  0
   -6.5399    4.1856    0.0000 H   0  0  0  0  0  0  0  0  0  0  0  0
   -4.3242    2.3912    0.0000 O   0  0  0  0  0  0  0  0  0  0  0  0
   -1.3855    0.8001    0.0000 C   0  0  0  0  0  0  0  0  0  0  0  0
   -1.3855    2.3999    0.0000 H   0  0  0  0  0  0  0  0  0  0  0  0
    1.3856    0.8001    0.0000 C   0  0  0  0  0  0  0  0  0  0  0  0
    1.5529    2.3912    0.0000 N   0  0  0  0  0  0  0  0  0  0  0  0
    3.1180    2.7239    0.0000 C   0  0  0  0  0  0  0  0  0  0  0  0
    3.7686    4.1856    0.0000 H   0  0  0  0  0  0  0  0  0  0  0  0
    3.9180    1.3383    0.0000 C   0  0  0  0  0  0  0  0  0  0  0  0
    5.5092    1.1710    0.0000 H   0  0  0  0  0  0  0  0  0  0  0  0
    2.8474    0.1492    0.0000 O   0  0  0  0  0  0  0  0  0  0  0  0
  1  2  1  0  0  0  0
  2  3  1  0  0  0  0
  2  4  2  0  0  0  0
  4  5  1  0  0  0  0
  4  6  1  0  0  0  0
  6  7  1  0  0  0  0
  6  8  2  0  0  0  0
  8  9  1  0  0  0  0
  9 10  2  0  0  0  0
 10 11  1  0  0  0  0
 11 12  1  0  0  0  0
 11 13  2  0  0  0  0
 13 14  1  0  0  0  0
 13 15  1  0  0  0  0
 15  9  1  0  0  0  0
  8 16  1  0  0  0  0
 16  1  2  0  0  0  0
 16 17  1  0  0  0  0
  1 18  1  0  0  0  0
 18 19  2  0  0  0  0
 19 20  1  0  0  0  0
 20 21  1  0  0  0  0
 20 22  2  0  0  0  0
 22 23  1  0  0  0  0
 22 24  1  0  0  0  0
 24 18  1  0  0  0  0
M  END
> <ChemID>
101230

> <source_casrn>
BioUlt-00-0

> <CAS>
NOCAS_877055

> <SMILES>
C1(C3=NC=CO3)=CC=CC(C2=NC=CO2)=C1

> <NAME>
1,3-Bis(2-oxazolyl)benzene

> <preferred_name>


> <iupac>


> <MPID>
101184

> <dsstox_substance_id>
DTXSID80877055

> <Canonical_QSARr>
c1c(cccc1-c1[n]cco1)-c1[n]cco1

> <InChI_Code_QSARr>
InChI=1S/C12H8N2O2/c1-2-9(11-13-4-6-15-11)8-10(3-1)12-14-5-7-16-12/h1-8H

> <InChI Key_QSARr>
XWGBGCDTDXIECR-UHFFFAOYSA-N

> <Salt_Solvent>
?

> <Ready_Biodeg>
0.0

$$$$
101236
  -INDIGO-08031722522D

 12 12  0  0  0  0  0  0  0  0999 V2000
   -1.5651    0.3326    0.0000 S   0  0  0  0  0  0  0  0  0  0  0  0
   -0.0000    0.0000    0.0000 C   0  0  0  0  0  0  0  0  0  0  0  0
    1.1890    1.0706    0.0000 C   0  0  0  0  0  0  0  0  0  0  0  0
    0.8564    2.6356    0.0000 H   0  0  0  0  0  0  0  0  0  0  0  0
    2.7107    0.5762    0.0000 O   0  0  0  0  0  0  0  0  0  0  0  0
    0.1672   -1.5912    0.0000 C   0  0  0  0  0  0  0  0  0  0  0  0
    1.5529   -2.3913    0.0000 H   0  0  0  0  0  0  0  0  0  0  0  0
   -1.2945   -2.2420    0.0000 N   0  0  0  0  0  0  0  0  0  0  0  0
   -2.3651   -1.0530    0.0000 C   0  0  0  0  0  0  0  0  0  0  0  0
   -3.9562   -1.2202    0.0000 N   0  0  0  0  0  0  0  0  0  0  0  0
   -4.6071   -2.6819    0.0000 H   0  0  0  0  0  0  0  0  0  0  0  0
   -4.8967    0.0742    0.0000 H   0  0  0  0  0  0  0  0  0  0  0  0
  1  2  1  0  0  0  0
  2  3  1  0  0  0  0
  3  4  1  0  0  0  0
  3  5  2  0  0  0  0
  2  6  2  0  0  0  0
  6  7  1  0  0  0  0
  6  8  1  0  0  0  0
  8  9  2  0  0  0  0
  9  1  1  0  0  0  0
  9 10  1  0  0  0  0
 10 11  1  0  0  0  0
 10 12  1  0  0  0  0
M  END
> <ChemID>
101236

> <source_casrn>
BioUlt-00-6

> <CAS>
1003-61-8

> <SMILES>
O=CC1=CN=C(N)S1

> <NAME>
2-Amino-5-thiazolecarboxaldehyde

> <preferred_name>
2-Amino-5-formylthiazole

> <iupac>
C4H4N2OS

> <MPID>
101188

> <dsstox_substance_id>
DTXSID80372252

> <Canonical_QSARr>
Nc1[n]cc(C=O)[s]1

> <InChI_Code_QSARr>
InChI=1S/C4H4N2OS/c5-4-6-1-3(2-7)8-4/h1-2H,(H2,5,6)

> <InChI Key_QSARr>
HZKMBJCDAXLMDN-UHFFFAOYSA-N

> <Salt_Solvent>
?

> <Ready_Biodeg>
1.0

$$$$
101241
  -INDIGO-08031722522D

 17 17  0  0  0  0  0  0  0  0999 V2000
   -1.3857    0.8000    0.0000 O   0  0  0  0  0  0  0  0  0  0  0  0
    0.0001   -0.0000    0.0000 C   0  0  0  0  0  0  0  0  0  0  0  0
    1.3857    0.8000    0.0000 C   0  0  0  0  0  0  0  0  0  0  0  0
    1.3857    2.4000    0.0000 H   0  0  0  0  0  0  0  0  0  0  0  0
    2.7713    0.0000    0.0000 C   0  0  0  0  0  0  0  0  0  0  0  0
    4.1569    0.8000    0.0000 H   0  0  0  0  0  0  0  0  0  0  0  0
    2.7713   -1.6000    0.0000 C   0  0  0  0  0  0  0  0  0  0  0  0
    4.1569   -2.4000    0.0000 H   0  0  0  0  0  0  0  0  0  0  0  0
    1.3857   -2.4000    0.0000 N   0  0  0  0  0  0  0  0  0  0  0  0
    0.0001   -1.6000    0.0000 C   0  0  0  0  0  0  0  0  0  0  0  0
   -1.3857   -2.4000    0.0000 H   0  0  0  0  0  0  0  0  0  0  0  0
   -2.7713   -0.0000    0.0000 C   0  0  0  0  0  0  0  0  0  0  0  0
   -2.7713   -1.6000    0.0000 O   0  0  0  0  0  0  0  0  0  0  0  0
   -4.1569    0.8000    0.0000 C   0  0  0  0  0  0  0  0  0  0  0  0
   -5.5426    1.6000    0.0000 H   0  0  0  0  0  0  0  0  0  0  0  0
   -5.5426   -0.0000    0.0000 H   0  0  0  0  0  0  0  0  0  0  0  0
   -4.1569    2.4000    0.0000 H   0  0  0  0  0  0  0  0  0  0  0  0
  1  2  1  0  0  0  0
  2  3  1  0  0  0  0
  3  4  1  0  0  0  0
  3  5  2  0  0  0  0
  5  6  1  0  0  0  0
  5  7  1  0  0  0  0
  7  8  1  0  0  0  0
  7  9  2  0  0  0  0
  9 10  1  0  0  0  0
 10  2  2  0  0  0  0
 10 11  1  0  0  0  0
  1 12  1  0  0  0  0
 12 13  2  0  0  0  0
 12 14  1  0  0  0  0
 14 15  1  0  0  0  0
 14 16  1  0  0  0  0
 14 17  1  0  0  0  0
M  END
> <ChemID>
101241

> <source_casrn>
BioUlt-01-1

> <CAS>
17747-43-2

> <SMILES>
O=C(OC1=CC=CN=C1)C

> <NAME>
3-Acetoxypyridine

> <preferred_name>
3-Pyridyl acetate

> <iupac>
?

> <MPID>
101192

> <dsstox_substance_id>
DTXSID20170315

> <Canonical_QSARr>
CC(=O)Oc1ccc[n]c1

> <InChI_Code_QSARr>
InChI=1S/C7H7NO2/c1-6(9)10-7-3-2-4-8-5-7/h2-5H,1H3

> <InChI Key_QSARr>
QZDWODWEESGPLC-UHFFFAOYSA-N

> <Salt_Solvent>
?

> <Ready_Biodeg>
1.0

$$$$
101245
  -INDIGO-08031722522D

 61 62  0  0  0  0  0  0  0  0999 V2000
    4.7037    0.5472    0.0000 C   0  0  0  0  0  0  0  0  0  0  0  0
    4.9814    2.1229    0.0000 O   0  0  0  0  0  0  0  0  0  0  0  0
    3.1999    0.0000    0.0000 C   0  0  0  0  0  0  0  0  0  0  0  0
    4.4256   -1.0284    0.0000 H   0  0  0  0  0  0  0  0  0  0  0  0
    2.3999    1.3856    0.0000 C   0  0  0  0  0  0  0  0  0  0  0  0
    3.9036    1.9329    0.0000 H   0  0  0  0  0  0  0  0  0  0  0  0
    2.1221    2.9613    0.0000 H   0  0  0  0  0  0  0  0  0  0  0  0
    0.8002    1.3856    0.0000 C   0  0  0  0  0  0  0  0  0  0  0  0
    1.0779    2.9613    0.0000 H   0  0  0  0  0  0  0  0  0  0  0  0
   -0.7036    1.9329    0.0000 H   0  0  0  0  0  0  0  0  0  0  0  0
    0.0001    0.0000    0.0000 C   0  0  0  0  0  0  0  0  0  0  0  0
   -1.2256    1.0285    0.0000 H   0  0  0  0  0  0  0  0  0  0  0  0
   -1.2256   -1.0284    0.0000 C   0  0  0  0  0  0  0  0  0  0  0  0
   -0.3661   -2.3779    0.0000 H   0  0  0  0  0  0  0  0  0  0  0  0
   -1.5721   -2.5905    0.0000 H   0  0  0  0  0  0  0  0  0  0  0  0
   -2.7294   -0.4812    0.0000 C   0  0  0  0  0  0  0  0  0  0  0  0
   -3.5889    0.8682    0.0000 H   0  0  0  0  0  0  0  0  0  0  0  0
   -2.3829    1.0808    0.0000 H   0  0  0  0  0  0  0  0  0  0  0  0
   -3.9547   -1.5097    0.0000 C   0  0  0  0  0  0  0  0  0  0  0  0
   -3.0952   -2.8591    0.0000 H   0  0  0  0  0  0  0  0  0  0  0  0
   -4.3012   -3.0717    0.0000 H   0  0  0  0  0  0  0  0  0  0  0  0
   -5.4585   -0.9625    0.0000 C   0  0  0  0  0  0  0  0  0  0  0  0
   -6.9619   -0.4152    0.0000 H   0  0  0  0  0  0  0  0  0  0  0  0
   -6.6842   -1.9909    0.0000 H   0  0  0  0  0  0  0  0  0  0  0  0
   -5.7362    0.6132    0.0000 H   0  0  0  0  0  0  0  0  0  0  0  0
    0.8002   -1.3856    0.0000 C   0  0  0  0  0  0  0  0  0  0  0  0
   -0.7757   -1.6635    0.0000 H   0  0  0  0  0  0  0  0  0  0  0  0
    1.0779   -2.9614    0.0000 H   0  0  0  0  0  0  0  0  0  0  0  0
    2.3999   -1.3856    0.0000 C   0  0  0  0  0  0  0  0  0  0  0  0
    2.1221   -2.9614    0.0000 H   0  0  0  0  0  0  0  0  0  0  0  0
    3.9036   -1.9329    0.0000 H   0  0  0  0  0  0  0  0  0  0  0  0
    5.9294   -0.4812    0.0000 O   0  0  0  0  0  0  0  0  0  0  0  0
    7.4328    0.0660    0.0000 C   0  0  0  0  0  0  0  0  0  0  0  0
    6.6327    1.4516    0.0000 H   0  0  0  0  0  0  0  0  0  0  0  0
    7.7105   -1.5097    0.0000 C   0  0  0  0  0  0  0  0  0  0  0  0
    6.1104   -1.5097    0.0000 H   0  0  0  0  0  0  0  0  0  0  0  0
    7.4328   -3.0854    0.0000 H   0  0  0  0  0  0  0  0  0  0  0  0
    9.2139   -2.0569    0.0000 C   0  0  0  0  0  0  0  0  0  0  0  0
    8.4142   -3.4426    0.0000 H   0  0  0  0  0  0  0  0  0  0  0  0
   10.4396   -3.0854    0.0000 H   0  0  0  0  0  0  0  0  0  0  0  0
   10.4396   -1.0284    0.0000 C   0  0  0  0  0  0  0  0  0  0  0  0
   11.2396   -2.4141    0.0000 H   0  0  0  0  0  0  0  0  0  0  0  0
   11.9434   -0.4812    0.0000 C   0  0  0  0  0  0  0  0  0  0  0  0
   11.5969    1.0809    0.0000 H   0  0  0  0  0  0  0  0  0  0  0  0
   12.8029    0.8682    0.0000 H   0  0  0  0  0  0  0  0  0  0  0  0
   13.1691   -1.5097    0.0000 C   0  0  0  0  0  0  0  0  0  0  0  0
   13.5152   -3.0717    0.0000 H   0  0  0  0  0  0  0  0  0  0  0  0
   12.3092   -2.8591    0.0000 H   0  0  0  0  0  0  0  0  0  0  0  0
   14.6725   -0.9624    0.0000 C   0  0  0  0  0  0  0  0  0  0  0  0
   14.3260    0.5996    0.0000 H   0  0  0  0  0  0  0  0  0  0  0  0
   15.5320    0.3870    0.0000 H   0  0  0  0  0  0  0  0  0  0  0  0
   15.8982   -1.9909    0.0000 C   0  0  0  0  0  0  0  0  0  0  0  0
   17.1239   -3.0193    0.0000 H   0  0  0  0  0  0  0  0  0  0  0  0
   17.4016   -1.4437    0.0000 H   0  0  0  0  0  0  0  0  0  0  0  0
   15.6201   -3.5666    0.0000 H   0  0  0  0  0  0  0  0  0  0  0  0
   10.1619    0.5472    0.0000 C   0  0  0  0  0  0  0  0  0  0  0  0
   11.7374    0.2694    0.0000 H   0  0  0  0  0  0  0  0  0  0  0  0
   10.4396    2.1229    0.0000 H   0  0  0  0  0  0  0  0  0  0  0  0
    8.6585    1.0944    0.0000 C   0  0  0  0  0  0  0  0  0  0  0  0
    9.4585    2.4801    0.0000 H   0  0  0  0  0  0  0  0  0  0  0  0
    7.4328    2.1229    0.0000 H   0  0  0  0  0  0  0  0  0  0  0  0
  1  2  2  0  0  0  0
  1  3  1  0  0  0  0
  3  4  1  0  0  0  0
  3  5  1  0  0  0  0
  5  6  1  0  0  0  0
  5  7  1  0  0  0  0
  5  8  1  0  0  0  0
  8  9  1  0  0  0  0
  8 10  1  0  0  0  0
  8 11  1  0  0  0  0
 11 12  1  0  0  0  0
 11 13  1  0  0  0  0
 13 14  1  0  0  0  0
 13 15  1  0  0  0  0
 13 16  1  0  0  0  0
 16 17  1  0  0  0  0
 16 18  1  0  0  0  0
 16 19  1  0  0  0  0
 19 20  1  0  0  0  0
 19 21  1  0  0  0  0
 19 22  1  0  0  0  0
 22 23  1  0  0  0  0
 22 24  1  0  0  0  0
 22 25  1  0  0  0  0
 11 26  1  0  0  0  0
 26 27  1  0  0  0  0
 26 28  1  0  0  0  0
 26 29  1  0  0  0  0
 29  3  1  0  0  0  0
 29 30  1  0  0  0  0
 29 31  1  0  0  0  0
  1 32  1  0  0  0  0
 32 33  1  0  0  0  0
 33 34  1  0  0  0  0
 33 35  1  0  0  0  0
 35 36  1  0  0  0  0
 35 37  1  0  0  0  0
 35 38  1  0  0  0  0
 38 39  1  0  0  0  0
 38 40  1  0  0  0  0
 38 41  1  0  0  0  0
 41 42  1  0  0  0  0
 41 43  1  0  0  0  0
 43 44  1  0  0  0  0
 43 45  1  0  0  0  0
 43 46  1  0  0  0  0
 46 47  1  0  0  0  0
 46 48  1  0  0  0  0
 46 49  1  0  0  0  0
 49 50  1  0  0  0  0
 49 51  1  0  0  0  0
 49 52  1  0  0  0  0
 52 53  1  0  0  0  0
 52 54  1  0  0  0  0
 52 55  1  0  0  0  0
 41 56  1  0  0  0  0
 56 57  1  0  0  0  0
 56 58  1  0  0  0  0
 56 59  1  0  0  0  0
 59 33  1  0  0  0  0
 59 60  1  0  0  0  0
 59 61  1  0  0  0  0
M  END
> <ChemID>
101245

> <source_casrn>
BioUlt-01-5

> <CAS>
NOCAS_878600

> <SMILES>
O=C(C2CCC(CCCC)CC2)OC1CCC(CCCC)CC1

> <NAME>
4-Butylcyclohexyl 4-butylcyclohexylcarboxylate

> <preferred_name>


> <iupac>


> <MPID>
101196

> <dsstox_substance_id>
DTXSID00878600

> <Canonical_QSARr>
CCCCC1CCC(CC1)C(=O)OC1CCC(CCCC)CC1

> <InChI_Code_QSARr>
InChI=1S/C21H38O2/c1-3-5-7-17-9-13-19(14-10-17)21(22)23-20-15-11-18(12-16-20)8-6-4-2/h17-20H,3-16H2,1-2H3

> <InChI Key_QSARr>
RZPUZPYRNRRZSC-UHFFFAOYSA-N

> <Salt_Solvent>
?

> <Ready_Biodeg>
1.0

$$$$
101255
  -INDIGO-08031722522D

 16 15  0  0  0  0  0  0  0  0999 V2000
   -2.7713    0.0000    0.0000 O   0  0  0  0  0  0  0  0  0  0  0  0
   -1.3857    0.8000    0.0000 C   0  0  0  0  0  0  0  0  0  0  0  0
   -1.3857    2.4000    0.0000 O   0  0  0  0  0  0  0  0  0  0  0  0
    0.0001    0.0000    0.0000 C   0  0  0  0  0  0  0  0  0  0  0  0
    0.6124   -1.4782    0.0000 H   0  0  0  0  0  0  0  0  0  0  0  0
   -0.6122   -1.4782    0.0000 H   0  0  0  0  0  0  0  0  0  0  0  0
    1.3857    0.8000    0.0000 C   0  0  0  0  0  0  0  0  0  0  0  0
    0.7734    2.2782    0.0000 H   0  0  0  0  0  0  0  0  0  0  0  0
    1.9980    2.2782    0.0000 H   0  0  0  0  0  0  0  0  0  0  0  0
    2.7713    0.0000    0.0000 N   0  0  0  0  0  0  0  0  0  0  0  0
    4.1569    0.8000    0.0000 O   0  0  0  0  0  0  0  0  0  0  0  0
    2.7713   -1.6000    0.0000 O   0  0  0  0  0  0  0  0  0  0  0  0
   -4.1569    0.8000    0.0000 C   0  0  0  0  0  0  0  0  0  0  0  0
   -5.5426    1.6000    0.0000 H   0  0  0  0  0  0  0  0  0  0  0  0
   -5.5426    0.0000    0.0000 H   0  0  0  0  0  0  0  0  0  0  0  0
   -4.1569    2.4000    0.0000 H   0  0  0  0  0  0  0  0  0  0  0  0
  1  2  1  0  0  0  0
  2  3  2  0  0  0  0
  2  4  1  0  0  0  0
  4  5  1  0  0  0  0
  4  6  1  0  0  0  0
  4  7  1  0  0  0  0
  7  8  1  0  0  0  0
  7  9  1  0  0  0  0
  7 10  1  0  0  0  0
 10 11  1  0  0  0  0
 10 12  2  0  0  0  0
  1 13  1  0  0  0  0
 13 14  1  0  0  0  0
 13 15  1  0  0  0  0
 13 16  1  0  0  0  0
M  CHG  2  10   1  11  -1
M  END
> <ChemID>
101255

> <source_casrn>
BioUlt-02-5

> <CAS>
20497-95-4

> <SMILES>
O=C(OC)CC[N+]([O-])=O

> <NAME>
Methyl 3-nitropropionate

> <preferred_name>
Methyl 3-nitropropanoate

> <iupac>
C4H7NO4

> <MPID>
101200

> <dsstox_substance_id>
DTXSID40338238

> <Canonical_QSARr>
COC(=O)CC[N+]([O-])=O

> <InChI_Code_QSARr>
InChI=1S/C4H7NO4/c1-9-4(6)2-3-5(7)8/h2-3H2,1H3

> <InChI Key_QSARr>
PVOVDKWDSQCJAA-UHFFFAOYSA-N

> <Salt_Solvent>
?

> <Ready_Biodeg>
1.0

$$$$
201288
  -INDIGO-08031722522D

 30 32  0  0  0  0  0  0  0  0999 V2000
    1.3856    0.8000    0.0000 C   0  0  0  0  0  0  0  0  0  0  0  0
    2.9613    1.0778    0.0000 H   0  0  0  0  0  0  0  0  0  0  0  0
    0.8383    2.3035    0.0000 H   0  0  0  0  0  0  0  0  0  0  0  0
    1.3856   -0.8000    0.0000 O   0  0  0  0  0  0  0  0  0  0  0  0
    0.0000   -0.0000    0.0000 C   0  0  0  0  0  0  0  0  0  0  0  0
   -1.0284    1.2256    0.0000 H   0  0  0  0  0  0  0  0  0  0  0  0
   -1.0284   -1.2257    0.0000 C   0  0  0  0  0  0  0  0  0  0  0  0
   -0.8196   -2.8119    0.0000 H   0  0  0  0  0  0  0  0  0  0  0  0
    0.2410   -2.1996    0.0000 H   0  0  0  0  0  0  0  0  0  0  0  0
   -2.6284   -1.2257    0.0000 N   0  0  0  0  0  0  0  0  0  0  0  0
   -3.4284    0.1599    0.0000 C   0  0  0  0  0  0  0  0  0  0  0  0
   -3.2196    1.7463    0.0000 H   0  0  0  0  0  0  0  0  0  0  0  0
   -2.1591    1.1340    0.0000 H   0  0  0  0  0  0  0  0  0  0  0  0
   -5.0285    0.1599    0.0000 C   0  0  0  0  0  0  0  0  0  0  0  0
   -4.7506   -1.4157    0.0000 H   0  0  0  0  0  0  0  0  0  0  0  0
   -5.8285    1.5455    0.0000 C   0  0  0  0  0  0  0  0  0  0  0  0
   -4.6028    2.5741    0.0000 H   0  0  0  0  0  0  0  0  0  0  0  0
   -7.0542    2.5741    0.0000 H   0  0  0  0  0  0  0  0  0  0  0  0
   -6.6285    0.1599    0.0000 O   0  0  0  0  0  0  0  0  0  0  0  0
   -3.4284   -2.6113    0.0000 C   0  0  0  0  0  0  0  0  0  0  0  0
   -5.0285   -2.6113    0.0000 C   0  0  0  0  0  0  0  0  0  0  0  0
   -5.8285   -1.2257    0.0000 H   0  0  0  0  0  0  0  0  0  0  0  0
   -5.8285   -3.9970    0.0000 C   0  0  0  0  0  0  0  0  0  0  0  0
   -7.4285   -3.9970    0.0000 H   0  0  0  0  0  0  0  0  0  0  0  0
   -5.0285   -5.3826    0.0000 C   0  0  0  0  0  0  0  0  0  0  0  0
   -5.8285   -6.7682    0.0000 H   0  0  0  0  0  0  0  0  0  0  0  0
   -3.4284   -5.3826    0.0000 C   0  0  0  0  0  0  0  0  0  0  0  0
   -2.6284   -6.7682    0.0000 H   0  0  0  0  0  0  0  0  0  0  0  0
   -2.6284   -3.9970    0.0000 C   0  0  0  0  0  0  0  0  0  0  0  0
   -1.0284   -3.9970    0.0000 H   0  0  0  0  0  0  0  0  0  0  0  0
  1  2  1  0  0  0  0
  1  3  1  0  0  0  0
  1  4  1  0  0  0  0
  4  5  1  0  0  0  0
  5  1  1  0  0  0  0
  5  6  1  0  0  0  0
  5  7  1  0  0  0  0
  7  8  1  0  0  0  0
  7  9  1  0  0  0  0
  7 10  1  0  0  0  0
 10 11  1  0  0  0  0
 11 12  1  0  0  0  0
 11 13  1  0  0  0  0
 11 14  1  0  0  0  0
 14 15  1  0  0  0  0
 14 16  1  0  0  0  0
 16 17  1  0  0  0  0
 16 18  1  0  0  0  0
 16 19  1  0  0  0  0
 19 14  1  0  0  0  0
 10 20  1  0  0  0  0
 20 21  1  0  0  0  0
 21 22  1  0  0  0  0
 21 23  2  0  0  0  0
 23 24  1  0  0  0  0
 23 25  1  0  0  0  0
 25 26  1  0  0  0  0
 25 27  2  0  0  0  0
 27 28  1  0  0  0  0
 27 29  1  0  0  0  0
 29 20  2  0  0  0  0
 29 30  1  0  0  0  0
M  END
> <ChemID>
201288

> <source_casrn>
2095-06-9

> <CAS>
NOCAS_862832

> <SMILES>
C1OC1CN(CC2CO2)c3ccccc3

> <NAME>


> <preferred_name>


> <iupac>


> <MPID>
101209

> <dsstox_substance_id>
DTXSID50862832

> <Canonical_QSARr>
C(C1CO1)N(CC1CO1)c1ccccc1

> <InChI_Code_QSARr>
InChI=1S/C12H15NO2/c1-2-4-10(5-3-1)13(6-11-8-14-11)7-12-9-15-12/h1-5,11-12H,6-9H2

> <InChI Key_QSARr>
JAYXSROKFZAHRQ-UHFFFAOYSA-N

> <Salt_Solvent>


> <Ready_Biodeg>
0.0

$$$$
201292
  -INDIGO-08031722522D

 61 66  0  0  0  0  0  0  0  0999 V2000
    1.2256   -1.0285    0.0000 C   0  0  0  0  0  0  0  0  0  0  0  0
    2.0256   -2.4140    0.0000 H   0  0  0  0  0  0  0  0  0  0  0  0
    2.4513    0.0001    0.0000 H   0  0  0  0  0  0  0  0  0  0  0  0
   -0.2780   -1.5757    0.0000 O   0  0  0  0  0  0  0  0  0  0  0  0
   -0.0001    0.0001    0.0000 C   0  0  0  0  0  0  0  0  0  0  0  0
    0.7999    1.3856    0.0000 H   0  0  0  0  0  0  0  0  0  0  0  0
   -1.5034    0.5473    0.0000 C   0  0  0  0  0  0  0  0  0  0  0  0
   -2.9228   -0.1916    0.0000 H   0  0  0  0  0  0  0  0  0  0  0  0
   -1.9845   -0.9788    0.0000 H   0  0  0  0  0  0  0  0  0  0  0  0
   -2.0506    2.0507    0.0000 N   0  0  0  0  0  0  0  0  0  0  0  0
   -1.0223    3.2765    0.0000 C   0  0  0  0  0  0  0  0  0  0  0  0
    0.5398    3.6227    0.0000 H   0  0  0  0  0  0  0  0  0  0  0  0
    0.3270    2.4167    0.0000 H   0  0  0  0  0  0  0  0  0  0  0  0
   -1.5695    4.7799    0.0000 C   0  0  0  0  0  0  0  0  0  0  0  0
   -2.9550    3.9799    0.0000 H   0  0  0  0  0  0  0  0  0  0  0  0
   -0.5411    6.0057    0.0000 C   0  0  0  0  0  0  0  0  0  0  0  0
    0.8447    5.2057    0.0000 H   0  0  0  0  0  0  0  0  0  0  0  0
    0.0061    7.5091    0.0000 H   0  0  0  0  0  0  0  0  0  0  0  0
   -2.1167    6.2835    0.0000 O   0  0  0  0  0  0  0  0  0  0  0  0
   -3.6265    2.3285    0.0000 C   0  0  0  0  0  0  0  0  0  0  0  0
   -4.6548    1.1030    0.0000 C   0  0  0  0  0  0  0  0  0  0  0  0
   -4.1076   -0.4006    0.0000 H   0  0  0  0  0  0  0  0  0  0  0  0
   -6.2307    1.3808    0.0000 C   0  0  0  0  0  0  0  0  0  0  0  0
   -7.2590    0.1550    0.0000 H   0  0  0  0  0  0  0  0  0  0  0  0
   -6.7779    2.8842    0.0000 C   0  0  0  0  0  0  0  0  0  0  0  0
   -8.3534    3.1620    0.0000 C   0  0  0  0  0  0  0  0  0  0  0  0
   -8.0073    4.7242    0.0000 H   0  0  0  0  0  0  0  0  0  0  0  0
   -9.2133    4.5115    0.0000 H   0  0  0  0  0  0  0  0  0  0  0  0
   -9.7390    2.3620    0.0000 C   0  0  0  0  0  0  0  0  0  0  0  0
  -11.1249    3.1620    0.0000 C   0  0  0  0  0  0  0  0  0  0  0  0
  -11.1249    4.7621    0.0000 H   0  0  0  0  0  0  0  0  0  0  0  0
  -12.5105    2.3620    0.0000 C   0  0  0  0  0  0  0  0  0  0  0  0
  -13.8960    3.1620    0.0000 H   0  0  0  0  0  0  0  0  0  0  0  0
  -12.5105    0.7622    0.0000 C   0  0  0  0  0  0  0  0  0  0  0  0
  -13.8960   -0.0378    0.0000 N   0  0  0  0  0  0  0  0  0  0  0  0
  -15.2816    0.7620    0.0000 C   0  0  0  0  0  0  0  0  0  0  0  0
  -16.8679    0.5533    0.0000 H   0  0  0  0  0  0  0  0  0  0  0  0
  -16.2558   -0.5073    0.0000 H   0  0  0  0  0  0  0  0  0  0  0  0
  -15.2816    2.3620    0.0000 C   0  0  0  0  0  0  0  0  0  0  0  0
  -13.7060    2.0842    0.0000 H   0  0  0  0  0  0  0  0  0  0  0  0
  -16.6675    3.1620    0.0000 C   0  0  0  0  0  0  0  0  0  0  0  0
  -17.6958    1.9365    0.0000 H   0  0  0  0  0  0  0  0  0  0  0  0
  -17.6958    4.3878    0.0000 H   0  0  0  0  0  0  0  0  0  0  0  0
  -15.2816    3.9621    0.0000 O   0  0  0  0  0  0  0  0  0  0  0  0
  -13.8960   -1.6379    0.0000 C   0  0  0  0  0  0  0  0  0  0  0  0
  -12.3097   -1.8467    0.0000 H   0  0  0  0  0  0  0  0  0  0  0  0
  -12.9221   -2.9073    0.0000 H   0  0  0  0  0  0  0  0  0  0  0  0
  -15.1217   -2.6664    0.0000 C   0  0  0  0  0  0  0  0  0  0  0  0
  -16.3474   -1.6379    0.0000 H   0  0  0  0  0  0  0  0  0  0  0  0
  -15.9217   -4.0519    0.0000 C   0  0  0  0  0  0  0  0  0  0  0  0
  -17.4253   -3.5047    0.0000 H   0  0  0  0  0  0  0  0  0  0  0  0
  -16.1996   -5.6277    0.0000 H   0  0  0  0  0  0  0  0  0  0  0  0
  -14.3218   -4.0519    0.0000 O   0  0  0  0  0  0  0  0  0  0  0  0
  -11.1249   -0.0378    0.0000 C   0  0  0  0  0  0  0  0  0  0  0  0
  -11.1249   -1.6379    0.0000 H   0  0  0  0  0  0  0  0  0  0  0  0
   -9.7390    0.7622    0.0000 C   0  0  0  0  0  0  0  0  0  0  0  0
   -8.3534   -0.0378    0.0000 H   0  0  0  0  0  0  0  0  0  0  0  0
   -5.7492    4.1100    0.0000 C   0  0  0  0  0  0  0  0  0  0  0  0
   -6.2965    5.6134    0.0000 H   0  0  0  0  0  0  0  0  0  0  0  0
   -4.1737    3.8322    0.0000 C   0  0  0  0  0  0  0  0  0  0  0  0
   -3.1453    5.0577    0.0000 H   0  0  0  0  0  0  0  0  0  0  0  0
  1  2  1  0  0  0  0
  1  3  1  0  0  0  0
  1  4  1  0  0  0  0
  4  5  1  0  0  0  0
  5  1  1  0  0  0  0
  5  6  1  0  0  0  0
  5  7  1  0  0  0  0
  7  8  1  0  0  0  0
  7  9  1  0  0  0  0
  7 10  1  0  0  0  0
 10 11  1  0  0  0  0
 11 12  1  0  0  0  0
 11 13  1  0  0  0  0
 11 14  1  0  0  0  0
 14 15  1  0  0  0  0
 14 16  1  0  0  0  0
 16 17  1  0  0  0  0
 16 18  1  0  0  0  0
 16 19  1  0  0  0  0
 19 14  1  0  0  0  0
 10 20  1  0  0  0  0
 20 21  1  0  0  0  0
 21 22  1  0  0  0  0
 21 23  2  0  0  0  0
 23 24  1  0  0  0  0
 23 25  1  0  0  0  0
 25 26  1  0  0  0  0
 26 27  1  0  0  0  0
 26 28  1  0  0  0  0
 26 29  1  0  0  0  0
 29 30  1  0  0  0  0
 30 31  1  0  0  0  0
 30 32  2  0  0  0  0
 32 33  1  0  0  0  0
 32 34  1  0  0  0  0
 34 35  1  0  0  0  0
 35 36  1  0  0  0  0
 36 37  1  0  0  0  0
 36 38  1  0  0  0  0
 36 39  1  0  0  0  0
 39 40  1  0  0  0  0
 39 41  1  0  0  0  0
 41 42  1  0  0  0  0
 41 43  1  0  0  0  0
 41 44  1  0  0  0  0
 44 39  1  0  0  0  0
 35 45  1  0  0  0  0
 45 46  1  0  0  0  0
 45 47  1  0  0  0  0
 45 48  1  0  0  0  0
 48 49  1  0  0  0  0
 48 50  1  0  0  0  0
 50 51  1  0  0  0  0
 50 52  1  0  0  0  0
 50 53  1  0  0  0  0
 53 48  1  0  0  0  0
 34 54  2  0  0  0  0
 54 55  1  0  0  0  0
 54 56  1  0  0  0  0
 56 29  2  0  0  0  0
 56 57  1  0  0  0  0
 25 58  2  0  0  0  0
 58 59  1  0  0  0  0
 58 60  1  0  0  0  0
 60 20  2  0  0  0  0
 60 61  1  0  0  0  0
M  END
> <ChemID>
201292

> <source_casrn>
28768-32-3

> <CAS>
28768-32-3

> <SMILES>
C1OC1CN(CC2CO2)c3ccc(Cc4ccc(cc4)N(CC5CO5)CC6CO6)cc3

> <NAME>


> <preferred_name>
4,4'-Methylenebis(N,N-diglycidylaniline)

> <iupac>
4,4'-methanediylbis[N,N-bis(oxiran-2-ylmethyl)aniline]

> <MPID>
101212

> <dsstox_substance_id>
DTXSID0042248

> <Canonical_QSARr>
C(c1ccc(cc1)N(CC1CO1)CC1CO1)c1ccc(cc1)N(CC1CO1)CC1CO1

> <InChI_Code_QSARr>
InChI=1S/C25H30N2O4/c1-5-20(26(10-22-14-28-22)11-23-15-29-23)6-2-18(1)9-19-3-7-21(8-4-19)27(12-24-16-30-24)13-25-17-31-25/h1-8,22-25H,9-17H2

> <InChI Key_QSARr>
FAUAZXVRLVIARB-UHFFFAOYSA-N

> <Salt_Solvent>


> <Ready_Biodeg>
0.0

$$$$
201296
  -INDIGO-08031722522D

 21 22  0  0  0  0  0  0  0  0999 V2000
    1.3856    0.8000    0.0000 C   0  0  0  0  0  0  0  0  0  0  0  0
    2.4142    2.0257    0.0000 H   0  0  0  0  0  0  0  0  0  0  0  0
    0.8384    2.3035    0.0000 H   0  0  0  0  0  0  0  0  0  0  0  0
    2.7713    0.0000    0.0000 C   0  0  0  0  0  0  0  0  0  0  0  0
    4.1569    0.8000    0.0000 H   0  0  0  0  0  0  0  0  0  0  0  0
    2.7713   -1.6000    0.0000 C   0  0  0  0  0  0  0  0  0  0  0  0
    4.1569   -2.4000    0.0000 H   0  0  0  0  0  0  0  0  0  0  0  0
    1.3856   -2.4000    0.0000 C   0  0  0  0  0  0  0  0  0  0  0  0
    2.4142   -3.6257    0.0000 H   0  0  0  0  0  0  0  0  0  0  0  0
    0.8384   -3.9035    0.0000 H   0  0  0  0  0  0  0  0  0  0  0  0
    0.0000   -1.6000    0.0000 C   0  0  0  0  0  0  0  0  0  0  0  0
   -0.1673   -3.1913    0.0000 H   0  0  0  0  0  0  0  0  0  0  0  0
   -1.5217   -2.0944    0.0000 C   0  0  0  0  0  0  0  0  0  0  0  0
   -2.0161   -3.6161    0.0000 H   0  0  0  0  0  0  0  0  0  0  0  0
   -2.4621   -0.8000    0.0000 C   0  0  0  0  0  0  0  0  0  0  0  0
   -4.0621   -0.8000    0.0000 H   0  0  0  0  0  0  0  0  0  0  0  0
   -1.5217    0.4944    0.0000 C   0  0  0  0  0  0  0  0  0  0  0  0
   -2.9073    1.2944    0.0000 H   0  0  0  0  0  0  0  0  0  0  0  0
   -1.1346    2.0469    0.0000 H   0  0  0  0  0  0  0  0  0  0  0  0
    0.0000    0.0000    0.0000 C   0  0  0  0  0  0  0  0  0  0  0  0
   -0.1673    1.5913    0.0000 H   0  0  0  0  0  0  0  0  0  0  0  0
  1  2  1  0  0  0  0
  1  3  1  0  0  0  0
  1  4  1  0  0  0  0
  4  5  1  0  0  0  0
  4  6  2  0  0  0  0
  6  7  1  0  0  0  0
  6  8  1  0  0  0  0
  8  9  1  0  0  0  0
  8 10  1  0  0  0  0
  8 11  1  0  0  0  0
 11 12  1  0  0  0  0
 11 13  1  0  0  0  0
 13 14  1  0  0  0  0
 13 15  2  0  0  0  0
 15 16  1  0  0  0  0
 15 17  1  0  0  0  0
 17 18  1  0  0  0  0
 17 19  1  0  0  0  0
 17 20  1  0  0  0  0
 20  1  1  0  0  0  0
 20 11  1  0  0  0  0
 20 21  1  0  0  0  0
M  END
> <ChemID>
201296

> <source_casrn>
3048-65-5

> <CAS>
3048-65-5

> <SMILES>
C1C=CCC2C=CCC12

> <NAME>


> <preferred_name>
3a,4,7,7a-Tetrahydroindene

> <iupac>
3a,4,7,7a-tetrahydro-1H-indene

> <MPID>
101214

> <dsstox_substance_id>
DTXSID0027515

> <Canonical_QSARr>
C1C=CCC2C=CCC21

> <InChI_Code_QSARr>
InChI=1S/C9H12/c1-2-5-9-7-3-6-8(9)4-1/h1-3,6,8-9H,4-5,7H2

> <InChI Key_QSARr>
UFERIGCCDYCZLN-UHFFFAOYSA-N

> <Salt_Solvent>


> <Ready_Biodeg>
0.0

$$$$
201320
  -INDIGO-08031722522D

 16 16  0  0  0  0  0  0  0  0999 V2000
    1.3856    2.4000    0.0000 Br  0  0  0  0  0  0  0  0  0  0  0  0
    1.3856    0.8000    0.0000 C   0  0  0  0  0  0  0  0  0  0  0  0
    2.7713   -0.0000    0.0000 C   0  0  0  0  0  0  0  0  0  0  0  0
    4.1569    0.8000    0.0000 H   0  0  0  0  0  0  0  0  0  0  0  0
    2.7713   -1.6000    0.0000 H   0  0  0  0  0  0  0  0  0  0  0  0
    0.0001   -0.0000    0.0000 C   0  0  0  0  0  0  0  0  0  0  0  0
    0.0001   -1.6000    0.0000 C   0  0  0  0  0  0  0  0  0  0  0  0
    1.3856   -2.4000    0.0000 H   0  0  0  0  0  0  0  0  0  0  0  0
   -1.3856   -2.4000    0.0000 C   0  0  0  0  0  0  0  0  0  0  0  0
   -1.3856   -4.0000    0.0000 H   0  0  0  0  0  0  0  0  0  0  0  0
   -2.7712   -1.6000    0.0000 C   0  0  0  0  0  0  0  0  0  0  0  0
   -4.1569   -2.4000    0.0000 H   0  0  0  0  0  0  0  0  0  0  0  0
   -2.7712   -0.0000    0.0000 C   0  0  0  0  0  0  0  0  0  0  0  0
   -4.1569    0.8000    0.0000 H   0  0  0  0  0  0  0  0  0  0  0  0
   -1.3856    0.8000    0.0000 C   0  0  0  0  0  0  0  0  0  0  0  0
   -1.3856    2.4000    0.0000 H   0  0  0  0  0  0  0  0  0  0  0  0
  1  2  1  0  0  0  0
  2  3  2  0  0  0  0
  3  4  1  0  0  0  0
  3  5  1  0  0  0  0
  2  6  1  0  0  0  0
  6  7  1  0  0  0  0
  7  8  1  0  0  0  0
  7  9  2  0  0  0  0
  9 10  1  0  0  0  0
  9 11  1  0  0  0  0
 11 12  1  0  0  0  0
 11 13  2  0  0  0  0
 13 14  1  0  0  0  0
 13 15  1  0  0  0  0
 15  6  2  0  0  0  0
 15 16  1  0  0  0  0
M  END
> <ChemID>
201320

> <source_casrn>
98-81-7

> <CAS>
98-81-7

> <SMILES>
BrC(=C)c1ccccc1

> <NAME>


> <preferred_name>
Styrene, alpha-bromo-

> <iupac>
1-bromoethenylbenzene

> <MPID>
101223

> <dsstox_substance_id>
DTXSID70243366

> <Canonical_QSARr>
C=C(Br)c1ccccc1

> <InChI_Code_QSARr>
InChI=1S/C8H7Br/c1-7(9)8-5-3-2-4-6-8/h2-6H,1H2

> <InChI Key_QSARr>
SRXJYTZCORKVNA-UHFFFAOYSA-N

> <Salt_Solvent>


> <Ready_Biodeg>
0.0

$$$$
201324
  -INDIGO-08031722522D

 51 51  0  0  0  0  0  0  0  0999 V2000
    7.1999    4.1570    0.0000 C   0  0  0  0  0  0  0  0  0  0  0  0
    8.0000    5.5426    0.0000 H   0  0  0  0  0  0  0  0  0  0  0  0
    8.0000    2.7714    0.0000 H   0  0  0  0  0  0  0  0  0  0  0  0
    5.6000    4.1570    0.0000 C   0  0  0  0  0  0  0  0  0  0  0  0
    4.8001    5.5426    0.0000 H   0  0  0  0  0  0  0  0  0  0  0  0
    4.8001    2.7714    0.0000 C   0  0  0  0  0  0  0  0  0  0  0  0
    5.6000    1.3858    0.0000 O   0  0  0  0  0  0  0  0  0  0  0  0
    3.1999    2.7714    0.0000 O   0  0  0  0  0  0  0  0  0  0  0  0
    2.4001    1.3858    0.0000 C   0  0  0  0  0  0  0  0  0  0  0  0
    2.6087   -0.2008    0.0000 H   0  0  0  0  0  0  0  0  0  0  0  0
    3.6693    0.4116    0.0000 H   0  0  0  0  0  0  0  0  0  0  0  0
    0.7999    1.3858    0.0000 C   0  0  0  0  0  0  0  0  0  0  0  0
    0.5913    2.9720    0.0000 H   0  0  0  0  0  0  0  0  0  0  0  0
   -0.4693    2.3596    0.0000 H   0  0  0  0  0  0  0  0  0  0  0  0
    0.0001   -0.0001    0.0000 N   0  0  0  0  0  0  0  0  0  0  0  0
    0.7999   -1.3857    0.0000 C   0  0  0  0  0  0  0  0  0  0  0  0
    2.4001   -1.3857    0.0000 O   0  0  0  0  0  0  0  0  0  0  0  0
    0.0001   -2.7713    0.0000 N   0  0  0  0  0  0  0  0  0  0  0  0
    0.7999   -4.1569    0.0000 C   0  0  0  0  0  0  0  0  0  0  0  0
    2.2782   -4.7693    0.0000 H   0  0  0  0  0  0  0  0  0  0  0  0
    2.2782   -3.5445    0.0000 H   0  0  0  0  0  0  0  0  0  0  0  0
    0.0001   -5.5425    0.0000 C   0  0  0  0  0  0  0  0  0  0  0  0
   -1.4783   -4.9304    0.0000 H   0  0  0  0  0  0  0  0  0  0  0  0
   -1.4783   -6.1549    0.0000 H   0  0  0  0  0  0  0  0  0  0  0  0
    0.7999   -6.9281    0.0000 O   0  0  0  0  0  0  0  0  0  0  0  0
    0.0001   -8.3140    0.0000 C   0  0  0  0  0  0  0  0  0  0  0  0
   -1.5999   -8.3140    0.0000 O   0  0  0  0  0  0  0  0  0  0  0  0
    0.7999   -9.6996    0.0000 C   0  0  0  0  0  0  0  0  0  0  0  0
    2.4001   -9.6996    0.0000 H   0  0  0  0  0  0  0  0  0  0  0  0
    0.0001  -11.0852    0.0000 C   0  0  0  0  0  0  0  0  0  0  0  0
    0.7999  -12.4708    0.0000 H   0  0  0  0  0  0  0  0  0  0  0  0
   -1.5999  -11.0852    0.0000 H   0  0  0  0  0  0  0  0  0  0  0  0
   -1.6001   -2.7713    0.0000 C   0  0  0  0  0  0  0  0  0  0  0  0
   -2.4000   -4.1569    0.0000 O   0  0  0  0  0  0  0  0  0  0  0  0
   -2.4000   -1.3857    0.0000 N   0  0  0  0  0  0  0  0  0  0  0  0
   -3.9999   -1.3857    0.0000 C   0  0  0  0  0  0  0  0  0  0  0  0
   -5.2693   -2.3596    0.0000 H   0  0  0  0  0  0  0  0  0  0  0  0
   -4.2088   -2.9720    0.0000 H   0  0  0  0  0  0  0  0  0  0  0  0
   -4.8000   -0.0001    0.0000 C   0  0  0  0  0  0  0  0  0  0  0  0
   -3.5305    0.9740    0.0000 H   0  0  0  0  0  0  0  0  0  0  0  0
   -4.5911    1.5864    0.0000 H   0  0  0  0  0  0  0  0  0  0  0  0
   -6.3999   -0.0001    0.0000 O   0  0  0  0  0  0  0  0  0  0  0  0
   -7.2000    1.3858    0.0000 C   0  0  0  0  0  0  0  0  0  0  0  0
   -6.3999    2.7714    0.0000 O   0  0  0  0  0  0  0  0  0  0  0  0
   -8.8000    1.3858    0.0000 C   0  0  0  0  0  0  0  0  0  0  0  0
   -9.6001   -0.0001    0.0000 H   0  0  0  0  0  0  0  0  0  0  0  0
   -9.6001    2.7714    0.0000 C   0  0  0  0  0  0  0  0  0  0  0  0
  -11.2000    2.7714    0.0000 H   0  0  0  0  0  0  0  0  0  0  0  0
   -8.8000    4.1570    0.0000 H   0  0  0  0  0  0  0  0  0  0  0  0
   -1.6001   -0.0001    0.0000 C   0  0  0  0  0  0  0  0  0  0  0  0
   -2.4000    1.3858    0.0000 O   0  0  0  0  0  0  0  0  0  0  0  0
  1  2  1  0  0  0  0
  1  3  1  0  0  0  0
  1  4  2  0  0  0  0
  4  5  1  0  0  0  0
  4  6  1  0  0  0  0
  6  7  2  0  0  0  0
  6  8  1  0  0  0  0
  8  9  1  0  0  0  0
  9 10  1  0  0  0  0
  9 11  1  0  0  0  0
  9 12  1  0  0  0  0
 12 13  1  0  0  0  0
 12 14  1  0  0  0  0
 12 15  1  0  0  0  0
 15 16  1  0  0  0  0
 16 17  2  0  0  0  0
 16 18  1  0  0  0  0
 18 19  1  0  0  0  0
 19 20  1  0  0  0  0
 19 21  1  0  0  0  0
 19 22  1  0  0  0  0
 22 23  1  0  0  0  0
 22 24  1  0  0  0  0
 22 25  1  0  0  0  0
 25 26  1  0  0  0  0
 26 27  2  0  0  0  0
 26 28  1  0  0  0  0
 28 29  1  0  0  0  0
 28 30  2  0  0  0  0
 30 31  1  0  0  0  0
 30 32  1  0  0  0  0
 18 33  1  0  0  0  0
 33 34  2  0  0  0  0
 33 35  1  0  0  0  0
 35 36  1  0  0  0  0
 36 37  1  0  0  0  0
 36 38  1  0  0  0  0
 36 39  1  0  0  0  0
 39 40  1  0  0  0  0
 39 41  1  0  0  0  0
 39 42  1  0  0  0  0
 42 43  1  0  0  0  0
 43 44  2  0  0  0  0
 43 45  1  0  0  0  0
 45 46  1  0  0  0  0
 45 47  2  0  0  0  0
 47 48  1  0  0  0  0
 47 49  1  0  0  0  0
 35 50  1  0  0  0  0
 50 15  1  0  0  0  0
 50 51  2  0  0  0  0
M  END
> <ChemID>
201324

> <source_casrn>
40220-08-4

> <CAS>
40220-08-4

> <SMILES>
C=CC(=O)OCCN1C(=O)N(CCOC(=O)C=C)C(=O)N(CCOC(=O)C=C)C1=O

> <NAME>


> <preferred_name>
(2,4,6-Trioxo-1,3,5-triazinane-1,3,5-triyl)triethane-2,1-diyl trisprop-2-enoate

> <iupac>
(2,4,6-trioxo-1,3,5-triazinane-1,3,5-triyl)triethane-2,1-diyl trisprop-2-enoate

> <MPID>
101226

> <dsstox_substance_id>
DTXSID1044936

> <Canonical_QSARr>
C=CC(=O)OCCN1C(=O)N(CCOC(=O)C=C)C(=O)N(CCOC(=O)C=C)C1=O

> <InChI_Code_QSARr>
InChI=1S/C18H21N3O9/c1-4-13(22)28-10-7-19-16(25)20(8-11-29-14(23)5-2)18(27)21(17(19)26)9-12-30-15(24)6-3/h4-6H,1-3,7-12H2

> <InChI Key_QSARr>
YIJYFLXQHDOQGW-UHFFFAOYSA-N

> <Salt_Solvent>


> <Ready_Biodeg>
0.0

$$$$
201336
  -INDIGO-08031722522D

 37 36  0  0  0  0  0  0  0  0999 V2000
    9.6994    0.8000    0.0000 C   0  0  0  0  0  0  0  0  0  0  0  0
   11.0851    0.0000    0.0000 H   0  0  0  0  0  0  0  0  0  0  0  0
    9.6994    2.4000    0.0000 H   0  0  0  0  0  0  0  0  0  0  0  0
    8.3137    0.0000    0.0000 C   0  0  0  0  0  0  0  0  0  0  0  0
    8.3137   -1.6000    0.0000 H   0  0  0  0  0  0  0  0  0  0  0  0
    6.9280    0.8000    0.0000 C   0  0  0  0  0  0  0  0  0  0  0  0
    6.3160    2.2782    0.0000 H   0  0  0  0  0  0  0  0  0  0  0  0
    7.5404    2.2782    0.0000 H   0  0  0  0  0  0  0  0  0  0  0  0
    5.5427    0.0000    0.0000 O   0  0  0  0  0  0  0  0  0  0  0  0
    4.1570    0.8000    0.0000 C   0  0  0  0  0  0  0  0  0  0  0  0
    4.1570    2.4000    0.0000 O   0  0  0  0  0  0  0  0  0  0  0  0
    2.7713    0.0000    0.0000 O   0  0  0  0  0  0  0  0  0  0  0  0
    1.3856    0.8000    0.0000 C   0  0  0  0  0  0  0  0  0  0  0  0
    0.7732    2.2782    0.0000 H   0  0  0  0  0  0  0  0  0  0  0  0
    1.9979    2.2782    0.0000 H   0  0  0  0  0  0  0  0  0  0  0  0
   -0.0001    0.0000    0.0000 C   0  0  0  0  0  0  0  0  0  0  0  0
    0.6122   -1.4782    0.0000 H   0  0  0  0  0  0  0  0  0  0  0  0
   -0.6121   -1.4782    0.0000 H   0  0  0  0  0  0  0  0  0  0  0  0
   -1.3858    0.8000    0.0000 O   0  0  0  0  0  0  0  0  0  0  0  0
   -2.7712    0.0000    0.0000 C   0  0  0  0  0  0  0  0  0  0  0  0
   -2.1592   -1.4782    0.0000 H   0  0  0  0  0  0  0  0  0  0  0  0
   -3.3835   -1.4782    0.0000 H   0  0  0  0  0  0  0  0  0  0  0  0
   -4.1569    0.8000    0.0000 C   0  0  0  0  0  0  0  0  0  0  0  0
   -4.7692    2.2782    0.0000 H   0  0  0  0  0  0  0  0  0  0  0  0
   -3.5445    2.2782    0.0000 H   0  0  0  0  0  0  0  0  0  0  0  0
   -5.5426    0.0000    0.0000 O   0  0  0  0  0  0  0  0  0  0  0  0
   -6.9283    0.8000    0.0000 C   0  0  0  0  0  0  0  0  0  0  0  0
   -6.9283    2.4000    0.0000 O   0  0  0  0  0  0  0  0  0  0  0  0
   -8.3140    0.0000    0.0000 O   0  0  0  0  0  0  0  0  0  0  0  0
   -9.6993    0.8000    0.0000 C   0  0  0  0  0  0  0  0  0  0  0  0
  -10.3117    2.2782    0.0000 H   0  0  0  0  0  0  0  0  0  0  0  0
   -9.0873    2.2782    0.0000 H   0  0  0  0  0  0  0  0  0  0  0  0
  -11.0850    0.0000    0.0000 C   0  0  0  0  0  0  0  0  0  0  0  0
  -11.0850   -1.6000    0.0000 H   0  0  0  0  0  0  0  0  0  0  0  0
  -12.4707    0.8000    0.0000 C   0  0  0  0  0  0  0  0  0  0  0  0
  -13.8564    0.0000    0.0000 H   0  0  0  0  0  0  0  0  0  0  0  0
  -12.4707    2.4000    0.0000 H   0  0  0  0  0  0  0  0  0  0  0  0
  1  2  1  0  0  0  0
  1  3  1  0  0  0  0
  1  4  2  0  0  0  0
  4  5  1  0  0  0  0
  4  6  1  0  0  0  0
  6  7  1  0  0  0  0
  6  8  1  0  0  0  0
  6  9  1  0  0  0  0
  9 10  1  0  0  0  0
 10 11  2  0  0  0  0
 10 12  1  0  0  0  0
 12 13  1  0  0  0  0
 13 14  1  0  0  0  0
 13 15  1  0  0  0  0
 13 16  1  0  0  0  0
 16 17  1  0  0  0  0
 16 18  1  0  0  0  0
 16 19  1  0  0  0  0
 19 20  1  0  0  0  0
 20 21  1  0  0  0  0
 20 22  1  0  0  0  0
 20 23  1  0  0  0  0
 23 24  1  0  0  0  0
 23 25  1  0  0  0  0
 23 26  1  0  0  0  0
 26 27  1  0  0  0  0
 27 28  2  0  0  0  0
 27 29  1  0  0  0  0
 29 30  1  0  0  0  0
 30 31  1  0  0  0  0
 30 32  1  0  0  0  0
 30 33  1  0  0  0  0
 33 34  1  0  0  0  0
 33 35  2  0  0  0  0
 35 36  1  0  0  0  0
 35 37  1  0  0  0  0
M  END
> <ChemID>
201336

> <source_casrn>
142-22-3

> <CAS>
142-22-3

> <SMILES>
C=CCOC(=O)OCCOCCOC(=O)OCC=C

> <NAME>


> <preferred_name>
2,5,8,10-Tetraoxatridec-12-enoic acid, 9-oxo-, 2-propenyl ester

> <iupac>
oxydiethane-2,1-diyl diprop-2-en-1-yl biscarbonate

> <MPID>
101230

> <dsstox_substance_id>
DTXSID7027095

> <Canonical_QSARr>
C=CCOC(=O)OCCOCCOC(=O)OCC=C

> <InChI_Code_QSARr>
InChI=1S/C12H18O7/c1-3-5-16-11(13)18-9-7-15-8-10-19-12(14)17-6-4-2/h3-4H,1-2,5-10H2

> <InChI Key_QSARr>
JHQVCQDWGSXTFE-UHFFFAOYSA-N

> <Salt_Solvent>


> <Ready_Biodeg>
1.0

$$$$
201348
  -INDIGO-08031722522D

 28 28  0  0  0  0  0  0  0  0999 V2000
    5.2083   -1.8957    0.0000 C   0  0  0  0  0  0  0  0  0  0  0  0
    6.2367   -3.1213    0.0000 H   0  0  0  0  0  0  0  0  0  0  0  0
    6.7840   -1.6179    0.0000 H   0  0  0  0  0  0  0  0  0  0  0  0
    4.6611   -3.3992    0.0000 H   0  0  0  0  0  0  0  0  0  0  0  0
    4.1799   -0.6700    0.0000 C   0  0  0  0  0  0  0  0  0  0  0  0
    4.7271    0.8335    0.0000 C   0  0  0  0  0  0  0  0  0  0  0  0
    6.3028    1.1114    0.0000 H   0  0  0  0  0  0  0  0  0  0  0  0
    3.6985    2.0592    0.0000 H   0  0  0  0  0  0  0  0  0  0  0  0
    2.6042   -0.9478    0.0000 C   0  0  0  0  0  0  0  0  0  0  0  0
    2.0570   -2.4514    0.0000 O   0  0  0  0  0  0  0  0  0  0  0  0
    1.5756    0.2778    0.0000 O   0  0  0  0  0  0  0  0  0  0  0  0
   -0.0001    0.0000    0.0000 C   0  0  0  0  0  0  0  0  0  0  0  0
    0.5472   -1.5035    0.0000 H   0  0  0  0  0  0  0  0  0  0  0  0
   -0.0001    1.6000    0.0000 C   0  0  0  0  0  0  0  0  0  0  0  0
    1.5756    1.3222    0.0000 H   0  0  0  0  0  0  0  0  0  0  0  0
    0.5472    3.1035    0.0000 H   0  0  0  0  0  0  0  0  0  0  0  0
   -1.3857    2.4000    0.0000 C   0  0  0  0  0  0  0  0  0  0  0  0
   -0.3573    3.6257    0.0000 H   0  0  0  0  0  0  0  0  0  0  0  0
   -2.4141    3.6257    0.0000 H   0  0  0  0  0  0  0  0  0  0  0  0
   -2.7713    1.6000    0.0000 C   0  0  0  0  0  0  0  0  0  0  0  0
   -3.3185    3.1035    0.0000 H   0  0  0  0  0  0  0  0  0  0  0  0
   -4.3470    1.3221    0.0000 H   0  0  0  0  0  0  0  0  0  0  0  0
   -2.7713    0.0000    0.0000 C   0  0  0  0  0  0  0  0  0  0  0  0
   -4.3470    0.2778    0.0000 H   0  0  0  0  0  0  0  0  0  0  0  0
   -3.3185   -1.5035    0.0000 H   0  0  0  0  0  0  0  0  0  0  0  0
   -1.3857   -0.8000    0.0000 C   0  0  0  0  0  0  0  0  0  0  0  0
   -2.4141   -2.0257    0.0000 H   0  0  0  0  0  0  0  0  0  0  0  0
   -0.3573   -2.0257    0.0000 H   0  0  0  0  0  0  0  0  0  0  0  0
  1  2  1  0  0  0  0
  1  3  1  0  0  0  0
  1  4  1  0  0  0  0
  1  5  1  0  0  0  0
  5  6  2  0  0  0  0
  6  7  1  0  0  0  0
  6  8  1  0  0  0  0
  5  9  1  0  0  0  0
  9 10  2  0  0  0  0
  9 11  1  0  0  0  0
 11 12  1  0  0  0  0
 12 13  1  0  0  0  0
 12 14  1  0  0  0  0
 14 15  1  0  0  0  0
 14 16  1  0  0  0  0
 14 17  1  0  0  0  0
 17 18  1  0  0  0  0
 17 19  1  0  0  0  0
 17 20  1  0  0  0  0
 20 21  1  0  0  0  0
 20 22  1  0  0  0  0
 20 23  1  0  0  0  0
 23 24  1  0  0  0  0
 23 25  1  0  0  0  0
 23 26  1  0  0  0  0
 26 12  1  0  0  0  0
 26 27  1  0  0  0  0
 26 28  1  0  0  0  0
M  END
> <ChemID>
201348

> <source_casrn>
101-43-9

> <CAS>
101-43-9

> <SMILES>
CC(=C)C(=O)OC1CCCCC1

> <NAME>


> <preferred_name>
Cyclohexyl methacrylate

> <iupac>
cyclohexyl methacrylate

> <MPID>
101237

> <dsstox_substance_id>
DTXSID7051507

> <Canonical_QSARr>
CC(=C)C(=O)OC1CCCCC1

> <InChI_Code_QSARr>
InChI=1S/C10H16O2/c1-8(2)10(11)12-9-6-4-3-5-7-9/h9H,1,3-7H2,2H3

> <InChI Key_QSARr>
OIWOHHBRDFKZNC-UHFFFAOYSA-N

> <Salt_Solvent>


> <Ready_Biodeg>
1.0

$$$$
201352
  -INDIGO-08031722522D

 19 18  0  0  0  0  0  0  0  0999 V2000
    1.3856    0.8000    0.0000 C   0  0  0  0  0  0  0  0  0  0  0  0
    2.7713    1.6000    0.0000 H   0  0  0  0  0  0  0  0  0  0  0  0
    2.7713    0.0000    0.0000 H   0  0  0  0  0  0  0  0  0  0  0  0
    1.3856    2.4000    0.0000 H   0  0  0  0  0  0  0  0  0  0  0  0
   -0.0000    0.0000    0.0000 C   0  0  0  0  0  0  0  0  0  0  0  0
   -0.0000   -1.6000    0.0000 C   0  0  0  0  0  0  0  0  0  0  0  0
   -1.3857   -2.4000    0.0000 H   0  0  0  0  0  0  0  0  0  0  0  0
    1.3856   -2.4000    0.0000 H   0  0  0  0  0  0  0  0  0  0  0  0
   -1.3857    0.8000    0.0000 C   0  0  0  0  0  0  0  0  0  0  0  0
   -1.3857    2.4000    0.0000 O   0  0  0  0  0  0  0  0  0  0  0  0
   -2.7714   -0.0000    0.0000 O   0  0  0  0  0  0  0  0  0  0  0  0
   -4.1569    0.8000    0.0000 C   0  0  0  0  0  0  0  0  0  0  0  0
   -4.7692    2.2782    0.0000 H   0  0  0  0  0  0  0  0  0  0  0  0
   -3.5447    2.2782    0.0000 H   0  0  0  0  0  0  0  0  0  0  0  0
   -5.5425   -0.0000    0.0000 C   0  0  0  0  0  0  0  0  0  0  0  0
   -5.5425   -1.6000    0.0000 H   0  0  0  0  0  0  0  0  0  0  0  0
   -6.9282    0.8000    0.0000 C   0  0  0  0  0  0  0  0  0  0  0  0
   -8.3138   -0.0000    0.0000 H   0  0  0  0  0  0  0  0  0  0  0  0
   -6.9282    2.4000    0.0000 H   0  0  0  0  0  0  0  0  0  0  0  0
  1  2  1  0  0  0  0
  1  3  1  0  0  0  0
  1  4  1  0  0  0  0
  1  5  1  0  0  0  0
  5  6  2  0  0  0  0
  6  7  1  0  0  0  0
  6  8  1  0  0  0  0
  5  9  1  0  0  0  0
  9 10  2  0  0  0  0
  9 11  1  0  0  0  0
 11 12  1  0  0  0  0
 12 13  1  0  0  0  0
 12 14  1  0  0  0  0
 12 15  1  0  0  0  0
 15 16  1  0  0  0  0
 15 17  2  0  0  0  0
 17 18  1  0  0  0  0
 17 19  1  0  0  0  0
M  END
> <ChemID>
201352

> <source_casrn>
96-05-9

> <CAS>
96-05-9

> <SMILES>
CC(=C)C(=O)OCC=C

> <NAME>


> <preferred_name>
Allyl methacrylate

> <iupac>
prop-2-en-1-yl 2-methylprop-2-enoate

> <MPID>
101240

> <dsstox_substance_id>
DTXSID2021816

> <Canonical_QSARr>
CC(=C)C(=O)OCC=C

> <InChI_Code_QSARr>
InChI=1S/C7H10O2/c1-4-5-9-7(8)6(2)3/h4H,1-2,5H2,3H3

> <InChI Key_QSARr>
FBCQUCJYYPMKRO-UHFFFAOYSA-N

> <Salt_Solvent>


> <Ready_Biodeg>
1.0

$$$$
201364
  -INDIGO-08031722522D

 70 73  0  0  0  0  0  0  0  0999 V2000
   -1.3859   -2.4000    0.0000 C   0  0  0  0  0  0  0  0  0  0  0  0
   -1.3859   -4.0000    0.0000 H   0  0  0  0  0  0  0  0  0  0  0  0
   -2.7712   -3.2001    0.0000 H   0  0  0  0  0  0  0  0  0  0  0  0
   -0.0000   -3.2001    0.0000 H   0  0  0  0  0  0  0  0  0  0  0  0
   -0.0000   -1.6000    0.0000 C   0  0  0  0  0  0  0  0  0  0  0  0
    1.3858   -2.4000    0.0000 O   0  0  0  0  0  0  0  0  0  0  0  0
   -0.0000    0.0000    0.0000 C   0  0  0  0  0  0  0  0  0  0  0  0
   -0.0000    1.6000    0.0000 H   0  0  0  0  0  0  0  0  0  0  0  0
   -1.6002    0.0000    0.0000 N   0  0  0  0  0  0  0  0  0  0  0  0
   -2.4000    1.3856    0.0000 N   0  0  0  0  0  0  0  0  0  0  0  0
   -4.0001    1.3857    0.0000 C   0  0  0  0  0  0  0  0  0  0  0  0
   -4.8000    2.7713    0.0000 C   0  0  0  0  0  0  0  0  0  0  0  0
   -4.0001    4.1570    0.0000 H   0  0  0  0  0  0  0  0  0  0  0  0
   -6.4001    2.7713    0.0000 C   0  0  0  0  0  0  0  0  0  0  0  0
   -7.1999    4.1570    0.0000 H   0  0  0  0  0  0  0  0  0  0  0  0
   -7.1999    1.3857    0.0000 C   0  0  0  0  0  0  0  0  0  0  0  0
   -8.8001    1.3857    0.0000 C   0  0  0  0  0  0  0  0  0  0  0  0
   -9.5999    2.7713    0.0000 C   0  0  0  0  0  0  0  0  0  0  0  0
   -8.8001    4.1570    0.0000 H   0  0  0  0  0  0  0  0  0  0  0  0
  -11.2000    2.7713    0.0000 C   0  0  0  0  0  0  0  0  0  0  0  0
  -11.9999    4.1570    0.0000 H   0  0  0  0  0  0  0  0  0  0  0  0
  -11.9999    1.3857    0.0000 C   0  0  0  0  0  0  0  0  0  0  0  0
  -13.6000    1.3857    0.0000 N   0  0  0  0  0  0  0  0  0  0  0  0
  -14.3998    2.7713    0.0000 N   0  0  0  0  0  0  0  0  0  0  0  0
  -16.0000    2.7713    0.0000 C   0  0  0  0  0  0  0  0  0  0  0  0
  -16.0000    1.1712    0.0000 H   0  0  0  0  0  0  0  0  0  0  0  0
  -16.0000    4.3713    0.0000 C   0  0  0  0  0  0  0  0  0  0  0  0
  -14.6141    5.1712    0.0000 C   0  0  0  0  0  0  0  0  0  0  0  0
  -14.6141    6.7713    0.0000 H   0  0  0  0  0  0  0  0  0  0  0  0
  -13.2288    5.9713    0.0000 H   0  0  0  0  0  0  0  0  0  0  0  0
  -16.0000    5.9713    0.0000 H   0  0  0  0  0  0  0  0  0  0  0  0
  -17.3858    5.1712    0.0000 O   0  0  0  0  0  0  0  0  0  0  0  0
  -17.6001    2.7713    0.0000 C   0  0  0  0  0  0  0  0  0  0  0  0
  -18.3999    4.1570    0.0000 O   0  0  0  0  0  0  0  0  0  0  0  0
  -18.3999    1.3857    0.0000 N   0  0  0  0  0  0  0  0  0  0  0  0
  -17.6001    0.0000    0.0000 H   0  0  0  0  0  0  0  0  0  0  0  0
  -20.0001    1.3857    0.0000 C   0  0  0  0  0  0  0  0  0  0  0  0
  -20.7999    0.0000    0.0000 C   0  0  0  0  0  0  0  0  0  0  0  0
  -20.0001   -1.3857    0.0000 H   0  0  0  0  0  0  0  0  0  0  0  0
  -22.4000    0.0000    0.0000 C   0  0  0  0  0  0  0  0  0  0  0  0
  -23.1999   -1.3857    0.0000 H   0  0  0  0  0  0  0  0  0  0  0  0
  -23.1999    1.3857    0.0000 C   0  0  0  0  0  0  0  0  0  0  0  0
  -24.8000    1.3857    0.0000 H   0  0  0  0  0  0  0  0  0  0  0  0
  -22.4000    2.7713    0.0000 C   0  0  0  0  0  0  0  0  0  0  0  0
  -23.1999    4.1570    0.0000 H   0  0  0  0  0  0  0  0  0  0  0  0
  -20.7999    2.7713    0.0000 C   0  0  0  0  0  0  0  0  0  0  0  0
  -20.0001    4.1570    0.0000 H   0  0  0  0  0  0  0  0  0  0  0  0
  -11.2000    0.0000    0.0000 C   0  0  0  0  0  0  0  0  0  0  0  0
  -11.9999   -1.3857    0.0000 Cl  0  0  0  0  0  0  0  0  0  0  0  0
   -9.5999    0.0000    0.0000 C   0  0  0  0  0  0  0  0  0  0  0  0
   -8.8001   -1.3857    0.0000 H   0  0  0  0  0  0  0  0  0  0  0  0
   -6.4001    0.0000    0.0000 C   0  0  0  0  0  0  0  0  0  0  0  0
   -7.1999   -1.3857    0.0000 H   0  0  0  0  0  0  0  0  0  0  0  0
   -4.8000    0.0000    0.0000 C   0  0  0  0  0  0  0  0  0  0  0  0
   -4.0001   -1.3857    0.0000 Cl  0  0  0  0  0  0  0  0  0  0  0  0
    1.6001    0.0000    0.0000 C   0  0  0  0  0  0  0  0  0  0  0  0
    2.3999   -1.3857    0.0000 O   0  0  0  0  0  0  0  0  0  0  0  0
    2.3999    1.3856    0.0000 N   0  0  0  0  0  0  0  0  0  0  0  0
    1.6001    2.7713    0.0000 H   0  0  0  0  0  0  0  0  0  0  0  0
    4.0001    1.3856    0.0000 C   0  0  0  0  0  0  0  0  0  0  0  0
    4.7999    2.7713    0.0000 C   0  0  0  0  0  0  0  0  0  0  0  0
    4.0001    4.1570    0.0000 H   0  0  0  0  0  0  0  0  0  0  0  0
    6.4000    2.7713    0.0000 C   0  0  0  0  0  0  0  0  0  0  0  0
    7.1999    4.1570    0.0000 H   0  0  0  0  0  0  0  0  0  0  0  0
    7.1999    1.3856    0.0000 C   0  0  0  0  0  0  0  0  0  0  0  0
    8.8000    1.3856    0.0000 H   0  0  0  0  0  0  0  0  0  0  0  0
    6.4000    0.0000    0.0000 C   0  0  0  0  0  0  0  0  0  0  0  0
    7.1999   -1.3857    0.0000 H   0  0  0  0  0  0  0  0  0  0  0  0
    4.7999    0.0000    0.0000 C   0  0  0  0  0  0  0  0  0  0  0  0
    4.0001   -1.3857    0.0000 H   0  0  0  0  0  0  0  0  0  0  0  0
  1  2  1  0  0  0  0
  1  3  1  0  0  0  0
  1  4  1  0  0  0  0
  1  5  1  0  0  0  0
  5  6  2  0  0  0  0
  5  7  1  0  0  0  0
  7  8  1  0  0  0  0
  7  9  1  0  0  0  0
  9 10  2  0  0  0  0
 10 11  1  0  0  0  0
 11 12  1  0  0  0  0
 12 13  1  0  0  0  0
 12 14  2  0  0  0  0
 14 15  1  0  0  0  0
 14 16  1  0  0  0  0
 16 17  1  0  0  0  0
 17 18  1  0  0  0  0
 18 19  1  0  0  0  0
 18 20  2  0  0  0  0
 20 21  1  0  0  0  0
 20 22  1  0  0  0  0
 22 23  1  0  0  0  0
 23 24  2  0  0  0  0
 24 25  1  0  0  0  0
 25 26  1  0  0  0  0
 25 27  1  0  0  0  0
 27 28  1  0  0  0  0
 28 29  1  0  0  0  0
 28 30  1  0  0  0  0
 28 31  1  0  0  0  0
 27 32  2  0  0  0  0
 25 33  1  0  0  0  0
 33 34  2  0  0  0  0
 33 35  1  0  0  0  0
 35 36  1  0  0  0  0
 35 37  1  0  0  0  0
 37 38  1  0  0  0  0
 38 39  1  0  0  0  0
 38 40  2  0  0  0  0
 40 41  1  0  0  0  0
 40 42  1  0  0  0  0
 42 43  1  0  0  0  0
 42 44  2  0  0  0  0
 44 45  1  0  0  0  0
 44 46  1  0  0  0  0
 46 37  2  0  0  0  0
 46 47  1  0  0  0  0
 22 48  2  0  0  0  0
 48 49  1  0  0  0  0
 48 50  1  0  0  0  0
 50 17  2  0  0  0  0
 50 51  1  0  0  0  0
 16 52  2  0  0  0  0
 52 53  1  0  0  0  0
 52 54  1  0  0  0  0
 54 11  2  0  0  0  0
 54 55  1  0  0  0  0
  7 56  1  0  0  0  0
 56 57  2  0  0  0  0
 56 58  1  0  0  0  0
 58 59  1  0  0  0  0
 58 60  1  0  0  0  0
 60 61  1  0  0  0  0
 61 62  1  0  0  0  0
 61 63  2  0  0  0  0
 63 64  1  0  0  0  0
 63 65  1  0  0  0  0
 65 66  1  0  0  0  0
 65 67  2  0  0  0  0
 67 68  1  0  0  0  0
 67 69  1  0  0  0  0
 69 60  2  0  0  0  0
 69 70  1  0  0  0  0
M  END
> <ChemID>
201364

> <source_casrn>
6358-85-6

> <CAS>
NOCAS_859966

> <SMILES>
CC(=O)C(N=Nc1ccc(cc1Cl)c2ccc(N=NC(C(C)=O)C(=O)Nc3ccccc3)c(Cl)c2)C(=O)Nc4ccccc4

> <NAME>


> <preferred_name>
C.I. Pigment Yellow 12

> <iupac>
2,2'-[(3,3'-dichlorobiphenyl-4,4'-diyl)di(E)diazene-2,1-diyl]bis(3-oxo-N-phenylbutanamide)

> <MPID>
101247

> <dsstox_substance_id>
DTXSID70859966

> <Canonical_QSARr>
CC(=O)C(N=Nc1ccc(cc1Cl)-c1cc(Cl)c(cc1)N=NC(C(=O)Nc1ccccc1)C(C)=O)C(=O)Nc1ccccc1

> <InChI_Code_QSARr>
InChI=1S/C32H26Cl2N6O4/c1-19(41)29(31(43)35-23-9-5-3-6-10-23)39-37-27-15-13-21(17-25(27)33)22-14-16-28(26(34)18-22)38-40-30(20(2)42)32(44)36-24-11-7-4-8-12-24/h3-18,29-30H,1-2H3,(H,35,43)(H,36,44)/b39-37+,40-38+

> <InChI Key_QSARr>
GNCOVOVCHIHPHP-HVMBLDELSA-N

> <Salt_Solvent>


> <Ready_Biodeg>
0.0

$$$$
201372
  -INDIGO-08031722522D

 52 53  0  0  0  0  0  0  0  0999 V2000
    9.6000    2.7712    0.0000 C   0  0  0  0  0  0  0  0  0  0  0  0
   11.2000    2.7712    0.0000 H   0  0  0  0  0  0  0  0  0  0  0  0
   10.4002    4.1569    0.0000 H   0  0  0  0  0  0  0  0  0  0  0  0
   10.4002    1.3856    0.0000 H   0  0  0  0  0  0  0  0  0  0  0  0
    8.0000    2.7712    0.0000 C   0  0  0  0  0  0  0  0  0  0  0  0
    7.2002    4.1569    0.0000 O   0  0  0  0  0  0  0  0  0  0  0  0
    7.2002    1.3856    0.0000 C   0  0  0  0  0  0  0  0  0  0  0  0
    8.4695    0.4116    0.0000 H   0  0  0  0  0  0  0  0  0  0  0  0
    7.4089   -0.2006    0.0000 H   0  0  0  0  0  0  0  0  0  0  0  0
    5.6002    1.3856    0.0000 C   0  0  0  0  0  0  0  0  0  0  0  0
    4.8000    2.7712    0.0000 O   0  0  0  0  0  0  0  0  0  0  0  0
    4.8000   -0.0001    0.0000 N   0  0  0  0  0  0  0  0  0  0  0  0
    5.6002   -1.3856    0.0000 H   0  0  0  0  0  0  0  0  0  0  0  0
    3.2000   -0.0001    0.0000 C   0  0  0  0  0  0  0  0  0  0  0  0
    2.4002    1.3856    0.0000 C   0  0  0  0  0  0  0  0  0  0  0  0
    3.2000    2.7713    0.0000 H   0  0  0  0  0  0  0  0  0  0  0  0
    0.8002    1.3856    0.0000 C   0  0  0  0  0  0  0  0  0  0  0  0
    0.0000    2.7713    0.0000 H   0  0  0  0  0  0  0  0  0  0  0  0
    0.0000    0.0001    0.0000 C   0  0  0  0  0  0  0  0  0  0  0  0
   -1.6000    0.0001    0.0000 C   0  0  0  0  0  0  0  0  0  0  0  0
   -2.3998    1.3856    0.0000 C   0  0  0  0  0  0  0  0  0  0  0  0
   -1.6000    2.7713    0.0000 H   0  0  0  0  0  0  0  0  0  0  0  0
   -3.9998    1.3856    0.0000 C   0  0  0  0  0  0  0  0  0  0  0  0
   -4.8000    2.7713    0.0000 H   0  0  0  0  0  0  0  0  0  0  0  0
   -4.8000    0.0001    0.0000 C   0  0  0  0  0  0  0  0  0  0  0  0
   -6.4000    0.0001    0.0000 N   0  0  0  0  0  0  0  0  0  0  0  0
   -7.1998   -1.3856    0.0000 H   0  0  0  0  0  0  0  0  0  0  0  0
   -7.1998    1.3856    0.0000 C   0  0  0  0  0  0  0  0  0  0  0  0
   -6.4000    2.7713    0.0000 O   0  0  0  0  0  0  0  0  0  0  0  0
   -8.7998    1.3856    0.0000 C   0  0  0  0  0  0  0  0  0  0  0  0
   -9.0089   -0.2006    0.0000 H   0  0  0  0  0  0  0  0  0  0  0  0
  -10.0695    0.4116    0.0000 H   0  0  0  0  0  0  0  0  0  0  0  0
   -9.6000    2.7713    0.0000 C   0  0  0  0  0  0  0  0  0  0  0  0
  -11.2000    2.7713    0.0000 C   0  0  0  0  0  0  0  0  0  0  0  0
  -12.8000    2.7713    0.0000 H   0  0  0  0  0  0  0  0  0  0  0  0
  -11.9998    4.1569    0.0000 H   0  0  0  0  0  0  0  0  0  0  0  0
  -11.9998    1.3856    0.0000 H   0  0  0  0  0  0  0  0  0  0  0  0
   -8.7998    4.1569    0.0000 O   0  0  0  0  0  0  0  0  0  0  0  0
   -3.9998   -1.3856    0.0000 C   0  0  0  0  0  0  0  0  0  0  0  0
   -4.8000   -2.7712    0.0000 C   0  0  0  0  0  0  0  0  0  0  0  0
   -5.5998   -4.1569    0.0000 H   0  0  0  0  0  0  0  0  0  0  0  0
   -3.9998   -4.1569    0.0000 H   0  0  0  0  0  0  0  0  0  0  0  0
   -6.4000   -2.7712    0.0000 H   0  0  0  0  0  0  0  0  0  0  0  0
   -2.4002   -1.3856    0.0000 C   0  0  0  0  0  0  0  0  0  0  0  0
   -1.6000   -2.7712    0.0000 H   0  0  0  0  0  0  0  0  0  0  0  0
    0.8002   -1.3856    0.0000 C   0  0  0  0  0  0  0  0  0  0  0  0
    0.0000   -2.7712    0.0000 H   0  0  0  0  0  0  0  0  0  0  0  0
    2.4002   -1.3856    0.0000 C   0  0  0  0  0  0  0  0  0  0  0  0
    3.2000   -2.7712    0.0000 C   0  0  0  0  0  0  0  0  0  0  0  0
    4.0002   -4.1569    0.0000 H   0  0  0  0  0  0  0  0  0  0  0  0
    2.4002   -4.1569    0.0000 H   0  0  0  0  0  0  0  0  0  0  0  0
    4.8000   -2.7712    0.0000 H   0  0  0  0  0  0  0  0  0  0  0  0
  1  2  1  0  0  0  0
  1  3  1  0  0  0  0
  1  4  1  0  0  0  0
  1  5  1  0  0  0  0
  5  6  2  0  0  0  0
  5  7  1  0  0  0  0
  7  8  1  0  0  0  0
  7  9  1  0  0  0  0
  7 10  1  0  0  0  0
 10 11  2  0  0  0  0
 10 12  1  0  0  0  0
 12 13  1  0  0  0  0
 12 14  1  0  0  0  0
 14 15  1  0  0  0  0
 15 16  1  0  0  0  0
 15 17  2  0  0  0  0
 17 18  1  0  0  0  0
 17 19  1  0  0  0  0
 19 20  1  0  0  0  0
 20 21  1  0  0  0  0
 21 22  1  0  0  0  0
 21 23  2  0  0  0  0
 23 24  1  0  0  0  0
 23 25  1  0  0  0  0
 25 26  1  0  0  0  0
 26 27  1  0  0  0  0
 26 28  1  0  0  0  0
 28 29  2  0  0  0  0
 28 30  1  0  0  0  0
 30 31  1  0  0  0  0
 30 32  1  0  0  0  0
 30 33  1  0  0  0  0
 33 34  1  0  0  0  0
 34 35  1  0  0  0  0
 34 36  1  0  0  0  0
 34 37  1  0  0  0  0
 33 38  2  0  0  0  0
 25 39  2  0  0  0  0
 39 40  1  0  0  0  0
 40 41  1  0  0  0  0
 40 42  1  0  0  0  0
 40 43  1  0  0  0  0
 39 44  1  0  0  0  0
 44 20  2  0  0  0  0
 44 45  1  0  0  0  0
 19 46  2  0  0  0  0
 46 47  1  0  0  0  0
 46 48  1  0  0  0  0
 48 14  2  0  0  0  0
 48 49  1  0  0  0  0
 49 50  1  0  0  0  0
 49 51  1  0  0  0  0
 49 52  1  0  0  0  0
M  END
> <ChemID>
201372

> <source_casrn>
91-96-3

> <CAS>
91-96-3

> <SMILES>
CC(=O)CC(=O)Nc1ccc(cc1C)c2ccc(NC(=O)CC(C)=O)c(C)c2

> <NAME>


> <preferred_name>
Butanamide, N,N'-(3,3'-dimethyl[1,1'-biphenyl]-4,4'-diyl)bis[3-oxo-

> <iupac>
N-[2-methyl-4-[3-methyl-4-(3-oxobutanoylamino)phenyl]phenyl]-3-oxobutanamide

> <MPID>
101251

> <dsstox_substance_id>
DTXSID5059034

> <Canonical_QSARr>
CC(=O)CC(=O)Nc1ccc(cc1C)-c1cc(C)c(cc1)NC(=O)CC(C)=O

> <InChI_Code_QSARr>
InChI=1S/C22H24N2O4/c1-13-9-17(5-7-19(13)23-21(27)11-15(3)25)18-6-8-20(14(2)10-18)24-22(28)12-16(4)26/h5-10H,11-12H2,1-4H3,(H,23,27)(H,24,28)

> <InChI Key_QSARr>
CRRLDLPBQWRVGN-UHFFFAOYSA-N

> <Salt_Solvent>


> <Ready_Biodeg>
0.0

$$$$
201397
  -INDIGO-08031722522D

 37 37  0  0  0  0  0  0  0  0999 V2000
    1.7007   -1.7069    0.0000 C   0  0  0  0  0  0  0  0  0  0  0  0
    2.2479   -3.2104    0.0000 H   0  0  0  0  0  0  0  0  0  0  0  0
    3.2765   -1.9848    0.0000 H   0  0  0  0  0  0  0  0  0  0  0  0
    2.4000   -1.3856    0.0000 H   0  0  0  0  0  0  0  0  0  0  0  0
    2.7291   -0.4812    0.0000 C   0  0  0  0  0  0  0  0  0  0  0  0
    3.9548   -1.5097    0.0000 C   0  0  0  0  0  0  0  0  0  0  0  0
    5.1805   -2.5381    0.0000 H   0  0  0  0  0  0  0  0  0  0  0  0
    5.4584   -0.9624    0.0000 H   0  0  0  0  0  0  0  0  0  0  0  0
    3.6770   -3.0854    0.0000 H   0  0  0  0  0  0  0  0  0  0  0  0
    3.7577    0.7444    0.0000 C   0  0  0  0  0  0  0  0  0  0  0  0
    4.7861    1.9701    0.0000 H   0  0  0  0  0  0  0  0  0  0  0  0
    3.2105    2.2479    0.0000 H   0  0  0  0  0  0  0  0  0  0  0  0
    5.3334    0.4666    0.0000 H   0  0  0  0  0  0  0  0  0  0  0  0
    1.5036    0.5472    0.0000 C   0  0  0  0  0  0  0  0  0  0  0  0
    1.1571    2.1093    0.0000 H   0  0  0  0  0  0  0  0  0  0  0  0
    2.3632    1.8966    0.0000 H   0  0  0  0  0  0  0  0  0  0  0  0
    0.0000    0.0001    0.0000 C   0  0  0  0  0  0  0  0  0  0  0  0
   -0.8000    1.3856    0.0000 C   0  0  0  0  0  0  0  0  0  0  0  0
    0.0000    2.7713    0.0000 H   0  0  0  0  0  0  0  0  0  0  0  0
   -1.5999    2.7713    0.0000 H   0  0  0  0  0  0  0  0  0  0  0  0
    0.7999    1.3856    0.0000 H   0  0  0  0  0  0  0  0  0  0  0  0
    0.7999   -1.3856    0.0000 C   0  0  0  0  0  0  0  0  0  0  0  0
    1.6000   -2.7713    0.0000 H   0  0  0  0  0  0  0  0  0  0  0  0
    1.0205   -0.6483    0.0000 H   0  0  0  0  0  0  0  0  0  0  0  0
   -0.8000   -1.3856    0.0000 H   0  0  0  0  0  0  0  0  0  0  0  0
   -1.3856   -0.8000    0.0000 C   0  0  0  0  0  0  0  0  0  0  0  0
   -2.7714    0.0001    0.0000 C   0  0  0  0  0  0  0  0  0  0  0  0
   -2.7714    1.6000    0.0000 H   0  0  0  0  0  0  0  0  0  0  0  0
   -4.1570   -0.8000    0.0000 C   0  0  0  0  0  0  0  0  0  0  0  0
   -5.5426    0.0001    0.0000 H   0  0  0  0  0  0  0  0  0  0  0  0
   -4.1570   -2.4000    0.0000 C   0  0  0  0  0  0  0  0  0  0  0  0
   -5.5426   -3.2000    0.0000 O   0  0  0  0  0  0  0  0  0  0  0  0
   -6.9282   -2.4000    0.0000 H   0  0  0  0  0  0  0  0  0  0  0  0
   -2.7714   -3.2000    0.0000 C   0  0  0  0  0  0  0  0  0  0  0  0
   -2.7714   -4.8000    0.0000 H   0  0  0  0  0  0  0  0  0  0  0  0
   -1.3856   -2.4000    0.0000 C   0  0  0  0  0  0  0  0  0  0  0  0
    0.0000   -3.2000    0.0000 H   0  0  0  0  0  0  0  0  0  0  0  0
  1  2  1  0  0  0  0
  1  3  1  0  0  0  0
  1  4  1  0  0  0  0
  1  5  1  0  0  0  0
  5  6  1  0  0  0  0
  6  7  1  0  0  0  0
  6  8  1  0  0  0  0
  6  9  1  0  0  0  0
  5 10  1  0  0  0  0
 10 11  1  0  0  0  0
 10 12  1  0  0  0  0
 10 13  1  0  0  0  0
  5 14  1  0  0  0  0
 14 15  1  0  0  0  0
 14 16  1  0  0  0  0
 14 17  1  0  0  0  0
 17 18  1  0  0  0  0
 18 19  1  0  0  0  0
 18 20  1  0  0  0  0
 18 21  1  0  0  0  0
 17 22  1  0  0  0  0
 22 23  1  0  0  0  0
 22 24  1  0  0  0  0
 22 25  1  0  0  0  0
 17 26  1  0  0  0  0
 26 27  1  0  0  0  0
 27 28  1  0  0  0  0
 27 29  2  0  0  0  0
 29 30  1  0  0  0  0
 29 31  1  0  0  0  0
 31 32  1  0  0  0  0
 32 33  1  0  0  0  0
 31 34  2  0  0  0  0
 34 35  1  0  0  0  0
 34 36  1  0  0  0  0
 36 26  2  0  0  0  0
 36 37  1  0  0  0  0
M  END
> <ChemID>
201397

> <source_casrn>
140-66-9

> <CAS>
140-66-9

> <SMILES>
CC(C)(C)CC(C)(C)c1ccc(O)cc1

> <NAME>


> <preferred_name>
4-(1,1,3,3-Tetramethylbutyl)phenol

> <iupac>
4-(2,4,4-trimethylpentan-2-yl)phenol

> <MPID>
101259

> <dsstox_substance_id>
DTXSID9022360

> <Canonical_QSARr>
CC(C)(C)CC(C)(C)c1ccc(O)cc1

> <InChI_Code_QSARr>
InChI=1S/C14H22O/c1-13(2,3)10-14(4,5)11-6-8-12(15)9-7-11/h6-9,15H,10H2,1-5H3

> <InChI Key_QSARr>
ISAVYTVYFVQUDY-UHFFFAOYSA-N

> <Salt_Solvent>


> <Ready_Biodeg>
0.0

$$$$
201401
  -INDIGO-08031722522D

 16 15  0  0  0  0  0  0  0  0999 V2000
    1.3856   -0.8000    0.0000 C   0  0  0  0  0  0  0  0  0  0  0  0
    2.7713   -1.6000    0.0000 H   0  0  0  0  0  0  0  0  0  0  0  0
    2.7713    0.0000    0.0000 H   0  0  0  0  0  0  0  0  0  0  0  0
    1.3856   -2.4000    0.0000 H   0  0  0  0  0  0  0  0  0  0  0  0
    0.0000    0.0000    0.0000 C   0  0  0  0  0  0  0  0  0  0  0  0
   -1.3857    0.8000    0.0000 C   0  0  0  0  0  0  0  0  0  0  0  0
   -2.7713    1.6000    0.0000 H   0  0  0  0  0  0  0  0  0  0  0  0
   -1.3857    2.4000    0.0000 H   0  0  0  0  0  0  0  0  0  0  0  0
   -2.7713    0.0000    0.0000 H   0  0  0  0  0  0  0  0  0  0  0  0
   -0.8000   -1.3856    0.0000 C   0  0  0  0  0  0  0  0  0  0  0  0
   -1.6000   -2.7713    0.0000 H   0  0  0  0  0  0  0  0  0  0  0  0
    0.0000   -2.7713    0.0000 H   0  0  0  0  0  0  0  0  0  0  0  0
   -2.4000   -1.3856    0.0000 H   0  0  0  0  0  0  0  0  0  0  0  0
    0.8000    1.3856    0.0000 O   0  0  0  0  0  0  0  0  0  0  0  0
    2.4000    1.3856    0.0000 O   0  0  0  0  0  0  0  0  0  0  0  0
    3.2000    2.7713    0.0000 H   0  0  0  0  0  0  0  0  0  0  0  0
  1  2  1  0  0  0  0
  1  3  1  0  0  0  0
  1  4  1  0  0  0  0
  1  5  1  0  0  0  0
  5  6  1  0  0  0  0
  6  7  1  0  0  0  0
  6  8  1  0  0  0  0
  6  9  1  0  0  0  0
  5 10  1  0  0  0  0
 10 11  1  0  0  0  0
 10 12  1  0  0  0  0
 10 13  1  0  0  0  0
  5 14  1  0  0  0  0
 14 15  1  0  0  0  0
 15 16  1  0  0  0  0
M  END
> <ChemID>
201401

> <source_casrn>
75-91-2

> <CAS>
75-91-2

> <SMILES>
CC(C)(C)OO

> <NAME>


> <preferred_name>
tert-Butyl hydroperoxide

> <iupac>
tert-butyl hydroperoxide

> <MPID>
101263

> <dsstox_substance_id>
DTXSID9024693

> <Canonical_QSARr>
CC(C)(C)OO

> <InChI_Code_QSARr>
InChI=1S/C4H10O2/c1-4(2,3)6-5/h5H,1-3H3

> <InChI Key_QSARr>
CIHOLLKRGTVIJN-UHFFFAOYSA-N

> <Salt_Solvent>


> <Ready_Biodeg>
0.0

$$$$
201409
  -INDIGO-08031722522D

 41 41  0  0  0  0  0  0  0  0999 V2000
    0.2778   -1.5757    0.0000 C   0  0  0  0  0  0  0  0  0  0  0  0
    1.6635   -2.3757    0.0000 H   0  0  0  0  0  0  0  0  0  0  0  0
    1.6635   -0.7756    0.0000 H   0  0  0  0  0  0  0  0  0  0  0  0
   -1.2257   -1.0285    0.0000 H   0  0  0  0  0  0  0  0  0  0  0  0
    0.0000    0.0000    0.0000 C   0  0  0  0  0  0  0  0  0  0  0  0
    1.5756    0.2778    0.0000 C   0  0  0  0  0  0  0  0  0  0  0  0
    3.1514    0.5557    0.0000 H   0  0  0  0  0  0  0  0  0  0  0  0
    2.8014   -0.7506    0.0000 H   0  0  0  0  0  0  0  0  0  0  0  0
    2.3758    1.6635    0.0000 H   0  0  0  0  0  0  0  0  0  0  0  0
   -0.2779    1.5758    0.0000 C   0  0  0  0  0  0  0  0  0  0  0  0
   -0.5558    3.1513    0.0000 H   0  0  0  0  0  0  0  0  0  0  0  0
    0.9479    2.6041    0.0000 H   0  0  0  0  0  0  0  0  0  0  0  0
    1.2979    1.2978    0.0000 H   0  0  0  0  0  0  0  0  0  0  0  0
   -1.6000    0.0000    0.0000 C   0  0  0  0  0  0  0  0  0  0  0  0
   -2.4000    1.3856    0.0000 C   0  0  0  0  0  0  0  0  0  0  0  0
   -1.6000    2.7713    0.0000 H   0  0  0  0  0  0  0  0  0  0  0  0
   -4.0000    1.3856    0.0000 C   0  0  0  0  0  0  0  0  0  0  0  0
   -4.8000    2.7713    0.0000 C   0  0  0  0  0  0  0  0  0  0  0  0
   -4.5912    4.3576    0.0000 H   0  0  0  0  0  0  0  0  0  0  0  0
   -3.5306    3.7454    0.0000 H   0  0  0  0  0  0  0  0  0  0  0  0
   -6.4001    2.7713    0.0000 O   0  0  0  0  0  0  0  0  0  0  0  0
   -7.2000    4.1569    0.0000 H   0  0  0  0  0  0  0  0  0  0  0  0
   -4.8000    0.0000    0.0000 C   0  0  0  0  0  0  0  0  0  0  0  0
   -6.4001    0.0000    0.0000 H   0  0  0  0  0  0  0  0  0  0  0  0
   -4.0000   -1.3857    0.0000 C   0  0  0  0  0  0  0  0  0  0  0  0
   -4.8000   -2.7713    0.0000 C   0  0  0  0  0  0  0  0  0  0  0  0
   -5.5999   -4.1568    0.0000 C   0  0  0  0  0  0  0  0  0  0  0  0
   -6.4001   -5.5426    0.0000 H   0  0  0  0  0  0  0  0  0  0  0  0
   -7.1757   -4.4348    0.0000 H   0  0  0  0  0  0  0  0  0  0  0  0
   -5.0527   -5.6604    0.0000 H   0  0  0  0  0  0  0  0  0  0  0  0
   -6.1857   -1.9713    0.0000 C   0  0  0  0  0  0  0  0  0  0  0  0
   -7.4113   -0.9429    0.0000 H   0  0  0  0  0  0  0  0  0  0  0  0
   -7.6891   -2.5184    0.0000 H   0  0  0  0  0  0  0  0  0  0  0  0
   -6.4634   -3.5469    0.0000 H   0  0  0  0  0  0  0  0  0  0  0  0
   -3.4143   -3.5712    0.0000 C   0  0  0  0  0  0  0  0  0  0  0  0
   -1.9108   -4.1185    0.0000 H   0  0  0  0  0  0  0  0  0  0  0  0
   -3.1366   -5.1470    0.0000 H   0  0  0  0  0  0  0  0  0  0  0  0
   -4.6400   -4.5997    0.0000 H   0  0  0  0  0  0  0  0  0  0  0  0
   -2.4000   -1.3857    0.0000 C   0  0  0  0  0  0  0  0  0  0  0  0
   -1.6000   -2.7713    0.0000 O   0  0  0  0  0  0  0  0  0  0  0  0
    0.0000   -2.7713    0.0000 H   0  0  0  0  0  0  0  0  0  0  0  0
  1  2  1  0  0  0  0
  1  3  1  0  0  0  0
  1  4  1  0  0  0  0
  1  5  1  0  0  0  0
  5  6  1  0  0  0  0
  6  7  1  0  0  0  0
  6  8  1  0  0  0  0
  6  9  1  0  0  0  0
  5 10  1  0  0  0  0
 10 11  1  0  0  0  0
 10 12  1  0  0  0  0
 10 13  1  0  0  0  0
  5 14  1  0  0  0  0
 14 15  1  0  0  0  0
 15 16  1  0  0  0  0
 15 17  2  0  0  0  0
 17 18  1  0  0  0  0
 18 19  1  0  0  0  0
 18 20  1  0  0  0  0
 18 21  1  0  0  0  0
 21 22  1  0  0  0  0
 17 23  1  0  0  0  0
 23 24  1  0  0  0  0
 23 25  2  0  0  0  0
 25 26  1  0  0  0  0
 26 27  1  0  0  0  0
 27 28  1  0  0  0  0
 27 29  1  0  0  0  0
 27 30  1  0  0  0  0
 26 31  1  0  0  0  0
 31 32  1  0  0  0  0
 31 33  1  0  0  0  0
 31 34  1  0  0  0  0
 26 35  1  0  0  0  0
 35 36  1  0  0  0  0
 35 37  1  0  0  0  0
 35 38  1  0  0  0  0
 25 39  1  0  0  0  0
 39 14  2  0  0  0  0
 39 40  1  0  0  0  0
 40 41  1  0  0  0  0
M  END
> <ChemID>
201409

> <source_casrn>
88-26-6

> <CAS>
88-26-6

> <SMILES>
CC(C)(C)c1cc(CO)cc(c1O)C(C)(C)C

> <NAME>


> <preferred_name>
di-tert-Butyl-4-hydroxymethyl phenol

> <iupac>
2,6-di-tert-butyl-4-(hydroxymethyl)phenol

> <MPID>
101269

> <dsstox_substance_id>
DTXSID7020211

> <Canonical_QSARr>
CC(C)(C)c1cc(CO)cc(c1O)C(C)(C)C

> <InChI_Code_QSARr>
InChI=1S/C15H24O2/c1-14(2,3)11-7-10(9-16)8-12(13(11)17)15(4,5)6/h7-8,16-17H,9H2,1-6H3

> <InChI Key_QSARr>
HNURKXXMYARGAY-UHFFFAOYSA-N

> <Salt_Solvent>


> <Ready_Biodeg>
0.0

$$$$
201417
  -INDIGO-08031722522D

 49 51  0  0  0  0  0  0  0  0999 V2000
    1.3857    6.3425    0.0000 C   0  0  0  0  0  0  0  0  0  0  0  0
    2.8892    6.8898    0.0000 H   0  0  0  0  0  0  0  0  0  0  0  0
    1.6635    7.9183    0.0000 H   0  0  0  0  0  0  0  0  0  0  0  0
    0.1600    7.3711    0.0000 H   0  0  0  0  0  0  0  0  0  0  0  0
    0.0000    5.5425    0.0000 C   0  0  0  0  0  0  0  0  0  0  0  0
   -0.8000    6.9281    0.0000 C   0  0  0  0  0  0  0  0  0  0  0  0
   -1.5999    8.3139    0.0000 H   0  0  0  0  0  0  0  0  0  0  0  0
   -0.2528    8.4317    0.0000 H   0  0  0  0  0  0  0  0  0  0  0  0
   -2.3756    7.2061    0.0000 H   0  0  0  0  0  0  0  0  0  0  0  0
   -1.3857    4.7426    0.0000 C   0  0  0  0  0  0  0  0  0  0  0  0
   -2.8891    5.2898    0.0000 H   0  0  0  0  0  0  0  0  0  0  0  0
   -2.6112    3.7140    0.0000 H   0  0  0  0  0  0  0  0  0  0  0  0
   -1.6634    6.3182    0.0000 H   0  0  0  0  0  0  0  0  0  0  0  0
    0.8000    4.1570    0.0000 C   0  0  0  0  0  0  0  0  0  0  0  0
    2.4001    4.1570    0.0000 C   0  0  0  0  0  0  0  0  0  0  0  0
    3.2001    5.5425    0.0000 H   0  0  0  0  0  0  0  0  0  0  0  0
    3.2001    2.7712    0.0000 C   0  0  0  0  0  0  0  0  0  0  0  0
    4.8000    2.7712    0.0000 N   0  0  0  0  0  0  0  0  0  0  0  0
    5.7405    1.4768    0.0000 N   0  0  0  0  0  0  0  0  0  0  0  0
    7.2621    1.9712    0.0000 C   0  0  0  0  0  0  0  0  0  0  0  0
    8.6478    1.1712    0.0000 C   0  0  0  0  0  0  0  0  0  0  0  0
    8.6478   -0.4287    0.0000 H   0  0  0  0  0  0  0  0  0  0  0  0
   10.0333    1.9712    0.0000 C   0  0  0  0  0  0  0  0  0  0  0  0
   11.4191    1.1712    0.0000 H   0  0  0  0  0  0  0  0  0  0  0  0
   10.0333    3.5714    0.0000 C   0  0  0  0  0  0  0  0  0  0  0  0
   11.4191    4.3713    0.0000 Cl  0  0  0  0  0  0  0  0  0  0  0  0
    8.6478    4.3713    0.0000 C   0  0  0  0  0  0  0  0  0  0  0  0
    8.6478    5.9713    0.0000 H   0  0  0  0  0  0  0  0  0  0  0  0
    7.2621    3.5714    0.0000 C   0  0  0  0  0  0  0  0  0  0  0  0
    5.7405    4.0657    0.0000 N   0  0  0  0  0  0  0  0  0  0  0  0
    2.4001    1.3856    0.0000 C   0  0  0  0  0  0  0  0  0  0  0  0
    3.2001    0.0000    0.0000 O   0  0  0  0  0  0  0  0  0  0  0  0
    4.8000    0.0000    0.0000 H   0  0  0  0  0  0  0  0  0  0  0  0
    0.8000    1.3856    0.0000 C   0  0  0  0  0  0  0  0  0  0  0  0
    0.0000    0.0000    0.0000 C   0  0  0  0  0  0  0  0  0  0  0  0
   -0.8000   -1.3856    0.0000 C   0  0  0  0  0  0  0  0  0  0  0  0
   -1.5999   -2.7713    0.0000 H   0  0  0  0  0  0  0  0  0  0  0  0
   -0.2528   -2.8891    0.0000 H   0  0  0  0  0  0  0  0  0  0  0  0
   -2.3756   -1.6635    0.0000 H   0  0  0  0  0  0  0  0  0  0  0  0
   -1.3857    0.8000    0.0000 C   0  0  0  0  0  0  0  0  0  0  0  0
   -2.6112    1.8285    0.0000 H   0  0  0  0  0  0  0  0  0  0  0  0
   -2.8891    0.2527    0.0000 H   0  0  0  0  0  0  0  0  0  0  0  0
   -1.6634   -0.7756    0.0000 H   0  0  0  0  0  0  0  0  0  0  0  0
    1.3857   -0.8000    0.0000 C   0  0  0  0  0  0  0  0  0  0  0  0
    2.8892   -1.3472    0.0000 H   0  0  0  0  0  0  0  0  0  0  0  0
    1.6635   -2.3757    0.0000 H   0  0  0  0  0  0  0  0  0  0  0  0
    0.1600   -1.8285    0.0000 H   0  0  0  0  0  0  0  0  0  0  0  0
    0.0000    2.7714    0.0000 C   0  0  0  0  0  0  0  0  0  0  0  0
   -1.5999    2.7714    0.0000 H   0  0  0  0  0  0  0  0  0  0  0  0
  1  2  1  0  0  0  0
  1  3  1  0  0  0  0
  1  4  1  0  0  0  0
  1  5  1  0  0  0  0
  5  6  1  0  0  0  0
  6  7  1  0  0  0  0
  6  8  1  0  0  0  0
  6  9  1  0  0  0  0
  5 10  1  0  0  0  0
 10 11  1  0  0  0  0
 10 12  1  0  0  0  0
 10 13  1  0  0  0  0
  5 14  1  0  0  0  0
 14 15  1  0  0  0  0
 15 16  1  0  0  0  0
 15 17  2  0  0  0  0
 17 18  1  0  0  0  0
 18 19  1  0  0  0  0
 19 20  2  0  0  0  0
 20 21  1  0  0  0  0
 21 22  1  0  0  0  0
 21 23  2  0  0  0  0
 23 24  1  0  0  0  0
 23 25  1  0  0  0  0
 25 26  1  0  0  0  0
 25 27  2  0  0  0  0
 27 28  1  0  0  0  0
 27 29  1  0  0  0  0
 29 20  1  0  0  0  0
 29 30  2  0  0  0  0
 30 18  1  0  0  0  0
 17 31  1  0  0  0  0
 31 32  1  0  0  0  0
 32 33  1  0  0  0  0
 31 34  2  0  0  0  0
 34 35  1  0  0  0  0
 35 36  1  0  0  0  0
 36 37  1  0  0  0  0
 36 38  1  0  0  0  0
 36 39  1  0  0  0  0
 35 40  1  0  0  0  0
 40 41  1  0  0  0  0
 40 42  1  0  0  0  0
 40 43  1  0  0  0  0
 35 44  1  0  0  0  0
 44 45  1  0  0  0  0
 44 46  1  0  0  0  0
 44 47  1  0  0  0  0
 34 48  1  0  0  0  0
 48 14  2  0  0  0  0
 48 49  1  0  0  0  0
M  END
> <ChemID>
201417

> <source_casrn>
3864-99-1

> <CAS>
3864-99-1

> <SMILES>
CC(C)(C)c1cc(n2nc3ccc(Cl)cc3n2)c(O)c(c1)C(C)(C)C

> <NAME>


> <preferred_name>
Phenol, 2-(5-chloro-2H-benzotriazol-2-yl)-4,6-bis(1,1-dimethylethyl)-

> <iupac>
2,4-di-tert-butyl-6-(5-chloro-2H-benzotriazol-2-yl)phenol

> <MPID>
101273

> <dsstox_substance_id>
DTXSID4038893

> <Canonical_QSARr>
CC(C)(C)c1cc(cc(c1O)-[n]1[n]c2ccc(Cl)cc2[n]1)C(C)(C)C

> <InChI_Code_QSARr>
InChI=1S/C20H24ClN3O/c1-19(2,3)12-9-14(20(4,5)6)18(25)17(10-12)24-22-15-8-7-13(21)11-16(15)23-24/h7-11,25H,1-6H3

> <InChI Key_QSARr>
UWSMKYBKUPAEJQ-UHFFFAOYSA-N

> <Salt_Solvent>


> <Ready_Biodeg>
0.0

$$$$
201421
  -INDIGO-08031722522D

 36 38  0  0  0  0  0  0  0  0999 V2000
    0.8000    1.3857    0.0000 C   0  0  0  0  0  0  0  0  0  0  0  0
    1.8284    2.6113    0.0000 H   0  0  0  0  0  0  0  0  0  0  0  0
    0.2529    2.8891    0.0000 H   0  0  0  0  0  0  0  0  0  0  0  0
   -0.7758    1.6635    0.0000 H   0  0  0  0  0  0  0  0  0  0  0  0
   -0.0000    0.0000    0.0000 C   0  0  0  0  0  0  0  0  0  0  0  0
   -1.3856    0.8000    0.0000 C   0  0  0  0  0  0  0  0  0  0  0  0
   -2.7712    1.6001    0.0000 H   0  0  0  0  0  0  0  0  0  0  0  0
   -1.6635    2.3757    0.0000 H   0  0  0  0  0  0  0  0  0  0  0  0
   -2.8891    0.2528    0.0000 H   0  0  0  0  0  0  0  0  0  0  0  0
   -0.8001   -1.3856    0.0000 C   0  0  0  0  0  0  0  0  0  0  0  0
   -1.3473   -2.8892    0.0000 H   0  0  0  0  0  0  0  0  0  0  0  0
   -2.3757   -1.6634    0.0000 H   0  0  0  0  0  0  0  0  0  0  0  0
   -1.8285   -0.1600    0.0000 H   0  0  0  0  0  0  0  0  0  0  0  0
    1.3855   -0.8000    0.0000 C   0  0  0  0  0  0  0  0  0  0  0  0
    1.3855   -2.4000    0.0000 C   0  0  0  0  0  0  0  0  0  0  0  0
   -0.0000   -3.2000    0.0000 H   0  0  0  0  0  0  0  0  0  0  0  0
    2.7714   -3.2000    0.0000 C   0  0  0  0  0  0  0  0  0  0  0  0
    2.7714   -4.8000    0.0000 H   0  0  0  0  0  0  0  0  0  0  0  0
    4.1569   -2.4000    0.0000 C   0  0  0  0  0  0  0  0  0  0  0  0
    5.5425   -3.2000    0.0000 C   0  0  0  0  0  0  0  0  0  0  0  0
    5.5425   -4.8000    0.0000 O   0  0  0  0  0  0  0  0  0  0  0  0
    6.9281   -2.4000    0.0000 C   0  0  0  0  0  0  0  0  0  0  0  0
    8.3139   -3.2000    0.0000 C   0  0  0  0  0  0  0  0  0  0  0  0
    8.3139   -4.8000    0.0000 H   0  0  0  0  0  0  0  0  0  0  0  0
    9.6995   -2.4000    0.0000 C   0  0  0  0  0  0  0  0  0  0  0  0
   11.0851   -3.2000    0.0000 H   0  0  0  0  0  0  0  0  0  0  0  0
    9.6995   -0.8000    0.0000 C   0  0  0  0  0  0  0  0  0  0  0  0
   11.0851    0.0000    0.0000 H   0  0  0  0  0  0  0  0  0  0  0  0
    8.3139    0.0000    0.0000 C   0  0  0  0  0  0  0  0  0  0  0  0
    8.3139    1.5999    0.0000 H   0  0  0  0  0  0  0  0  0  0  0  0
    6.9281   -0.8000    0.0000 C   0  0  0  0  0  0  0  0  0  0  0  0
    5.5425    0.0000    0.0000 C   0  0  0  0  0  0  0  0  0  0  0  0
    5.5425    1.6001    0.0000 O   0  0  0  0  0  0  0  0  0  0  0  0
    4.1569   -0.8000    0.0000 C   0  0  0  0  0  0  0  0  0  0  0  0
    2.7714    0.0000    0.0000 C   0  0  0  0  0  0  0  0  0  0  0  0
    2.7714    1.6001    0.0000 H   0  0  0  0  0  0  0  0  0  0  0  0
  1  2  1  0  0  0  0
  1  3  1  0  0  0  0
  1  4  1  0  0  0  0
  1  5  1  0  0  0  0
  5  6  1  0  0  0  0
  6  7  1  0  0  0  0
  6  8  1  0  0  0  0
  6  9  1  0  0  0  0
  5 10  1  0  0  0  0
 10 11  1  0  0  0  0
 10 12  1  0  0  0  0
 10 13  1  0  0  0  0
  5 14  1  0  0  0  0
 14 15  1  0  0  0  0
 15 16  1  0  0  0  0
 15 17  2  0  0  0  0
 17 18  1  0  0  0  0
 17 19  1  0  0  0  0
 19 20  1  0  0  0  0
 20 21  2  0  0  0  0
 20 22  1  0  0  0  0
 22 23  1  0  0  0  0
 23 24  1  0  0  0  0
 23 25  2  0  0  0  0
 25 26  1  0  0  0  0
 25 27  1  0  0  0  0
 27 28  1  0  0  0  0
 27 29  2  0  0  0  0
 29 30  1  0  0  0  0
 29 31  1  0  0  0  0
 31 22  2  0  0  0  0
 31 32  1  0  0  0  0
 32 33  2  0  0  0  0
 32 34  1  0  0  0  0
 34 19  2  0  0  0  0
 34 35  1  0  0  0  0
 35 14  2  0  0  0  0
 35 36  1  0  0  0  0
M  END
> <ChemID>
201421

> <source_casrn>
84-47-9

> <CAS>
84-47-9

> <SMILES>
CC(C)(C)c1ccc2C(=O)c3ccccc3C(=O)c2c1

> <NAME>


> <preferred_name>
9,10-Anthracenedione, 2-(1,1-dimethylethyl)-

> <iupac>
2-tert-butylanthracene-9,10-dione

> <MPID>
101275

> <dsstox_substance_id>
DTXSID3058903

> <Canonical_QSARr>
CC(C)(C)c1cc2c(cc1)C(=O)c1ccccc1C2=O

> <InChI_Code_QSARr>
InChI=1S/C18H16O2/c1-18(2,3)11-8-9-14-15(10-11)17(20)13-7-5-4-6-12(13)16(14)19/h4-10H,1-3H3

> <InChI Key_QSARr>
YTPSFXZMJKMUJE-UHFFFAOYSA-N

> <Salt_Solvent>


> <Ready_Biodeg>
0.0

$$$$
201425
  -INDIGO-08031722522D

 38 39  0  0  0  0  0  0  0  0999 V2000
   -0.2779   -1.5757    0.0000 C   0  0  0  0  0  0  0  0  0  0  0  0
    0.9478   -2.6041    0.0000 H   0  0  0  0  0  0  0  0  0  0  0  0
   -0.5556   -3.1514    0.0000 H   0  0  0  0  0  0  0  0  0  0  0  0
    1.2258   -1.0285    0.0000 H   0  0  0  0  0  0  0  0  0  0  0  0
    0.0000    0.0000    0.0000 C   0  0  0  0  0  0  0  0  0  0  0  0
    0.5473    1.5035    0.0000 C   0  0  0  0  0  0  0  0  0  0  0  0
    0.4569    2.4514    0.0000 H   0  0  0  0  0  0  0  0  0  0  0  0
   -0.4811    2.7291    0.0000 H   0  0  0  0  0  0  0  0  0  0  0  0
   -1.0284    1.2257    0.0000 H   0  0  0  0  0  0  0  0  0  0  0  0
    1.5757   -0.2779    0.0000 C   0  0  0  0  0  0  0  0  0  0  0  0
    2.6566   -1.4575    0.0000 H   0  0  0  0  0  0  0  0  0  0  0  0
    1.5058   -1.8763    0.0000 H   0  0  0  0  0  0  0  0  0  0  0  0
    2.6041    0.9478    0.0000 C   0  0  0  0  0  0  0  0  0  0  0  0
    2.0568    2.4514    0.0000 C   0  0  0  0  0  0  0  0  0  0  0  0
    2.8570    3.8370    0.0000 H   0  0  0  0  0  0  0  0  0  0  0  0
    1.2323    2.9274    0.0000 H   0  0  0  0  0  0  0  0  0  0  0  0
    4.1800    0.6700    0.0000 C   0  0  0  0  0  0  0  0  0  0  0  0
    4.7270   -0.8336    0.0000 C   0  0  0  0  0  0  0  0  0  0  0  0
    3.6986   -2.0592    0.0000 H   0  0  0  0  0  0  0  0  0  0  0  0
    6.3029   -1.1113    0.0000 C   0  0  0  0  0  0  0  0  0  0  0  0
    6.8501   -2.6149    0.0000 H   0  0  0  0  0  0  0  0  0  0  0  0
    7.3313    0.1143    0.0000 C   0  0  0  0  0  0  0  0  0  0  0  0
    8.9069   -0.1636    0.0000 H   0  0  0  0  0  0  0  0  0  0  0  0
    6.7840    1.6178    0.0000 C   0  0  0  0  0  0  0  0  0  0  0  0
    7.8124    2.8435    0.0000 H   0  0  0  0  0  0  0  0  0  0  0  0
    5.2084    1.8957    0.0000 C   0  0  0  0  0  0  0  0  0  0  0  0
    4.6611    3.3991    0.0000 H   0  0  0  0  0  0  0  0  0  0  0  0
   -1.5999    0.0000    0.0000 C   0  0  0  0  0  0  0  0  0  0  0  0
   -2.3999    1.3856    0.0000 C   0  0  0  0  0  0  0  0  0  0  0  0
   -1.5999    2.7713    0.0000 H   0  0  0  0  0  0  0  0  0  0  0  0
   -4.0001    1.3856    0.0000 C   0  0  0  0  0  0  0  0  0  0  0  0
   -4.8001    2.7713    0.0000 H   0  0  0  0  0  0  0  0  0  0  0  0
   -4.8001    0.0000    0.0000 C   0  0  0  0  0  0  0  0  0  0  0  0
   -6.4000    0.0000    0.0000 H   0  0  0  0  0  0  0  0  0  0  0  0
   -4.0001   -1.3856    0.0000 C   0  0  0  0  0  0  0  0  0  0  0  0
   -4.8001   -2.7712    0.0000 H   0  0  0  0  0  0  0  0  0  0  0  0
   -2.3999   -1.3856    0.0000 C   0  0  0  0  0  0  0  0  0  0  0  0
   -1.5999   -2.7712    0.0000 H   0  0  0  0  0  0  0  0  0  0  0  0
  1  2  1  0  0  0  0
  1  3  1  0  0  0  0
  1  4  1  0  0  0  0
  1  5  1  0  0  0  0
  5  6  1  0  0  0  0
  6  7  1  0  0  0  0
  6  8  1  0  0  0  0
  6  9  1  0  0  0  0
  5 10  1  0  0  0  0
 10 11  1  0  0  0  0
 10 12  1  0  0  0  0
 10 13  1  0  0  0  0
 13 14  2  0  0  0  0
 14 15  1  0  0  0  0
 14 16  1  0  0  0  0
 13 17  1  0  0  0  0
 17 18  1  0  0  0  0
 18 19  1  0  0  0  0
 18 20  2  0  0  0  0
 20 21  1  0  0  0  0
 20 22  1  0  0  0  0
 22 23  1  0  0  0  0
 22 24  2  0  0  0  0
 24 25  1  0  0  0  0
 24 26  1  0  0  0  0
 26 17  2  0  0  0  0
 26 27  1  0  0  0  0
  5 28  1  0  0  0  0
 28 29  1  0  0  0  0
 29 30  1  0  0  0  0
 29 31  2  0  0  0  0
 31 32  1  0  0  0  0
 31 33  1  0  0  0  0
 33 34  1  0  0  0  0
 33 35  2  0  0  0  0
 35 36  1  0  0  0  0
 35 37  1  0  0  0  0
 37 28  2  0  0  0  0
 37 38  1  0  0  0  0
M  END
> <ChemID>
201425

> <source_casrn>
6362-80-7

> <CAS>
6362-80-7

> <SMILES>
CC(C)(CC(=C)c1ccccc1)c2ccccc2

> <NAME>


> <preferred_name>
alpha-(2-Methyl-2-phenylpropyl)styrene

> <iupac>
1,1'-(4-methylpent-1-ene-2,4-diyl)dibenzene

> <MPID>
101277

> <dsstox_substance_id>
DTXSID3044253

> <Canonical_QSARr>
CC(C)(CC(=C)c1ccccc1)c1ccccc1

> <InChI_Code_QSARr>
InChI=1S/C18H20/c1-15(16-10-6-4-7-11-16)14-18(2,3)17-12-8-5-9-13-17/h4-13H,1,14H2,2-3H3

> <InChI Key_QSARr>
ZOKCNEIWFQCSCM-UHFFFAOYSA-N

> <Salt_Solvent>


> <Ready_Biodeg>
0.0

$$$$
201437
  -INDIGO-08031722522D

 62 65  0  0  0  0  0  0  0  0999 V2000
    0.5472   -1.5036    0.0000 C   0  0  0  0  0  0  0  0  0  0  0  0
    1.0945   -3.0070    0.0000 H   0  0  0  0  0  0  0  0  0  0  0  0
   -0.4812   -2.7292    0.0000 H   0  0  0  0  0  0  0  0  0  0  0  0
   -1.0285   -1.2256    0.0000 H   0  0  0  0  0  0  0  0  0  0  0  0
   -0.0001   -0.0000    0.0000 C   0  0  0  0  0  0  0  0  0  0  0  0
   -0.5474    1.5035    0.0000 C   0  0  0  0  0  0  0  0  0  0  0  0
   -1.0943    3.0071    0.0000 H   0  0  0  0  0  0  0  0  0  0  0  0
    0.4811    2.7291    0.0000 H   0  0  0  0  0  0  0  0  0  0  0  0
    1.0284    1.2257    0.0000 H   0  0  0  0  0  0  0  0  0  0  0  0
   -1.5758   -0.2778    0.0000 C   0  0  0  0  0  0  0  0  0  0  0  0
   -2.1228   -1.7814    0.0000 C   0  0  0  0  0  0  0  0  0  0  0  0
   -1.5758   -3.2848    0.0000 H   0  0  0  0  0  0  0  0  0  0  0  0
   -3.6985   -2.0592    0.0000 C   0  0  0  0  0  0  0  0  0  0  0  0
   -4.2459   -3.5628    0.0000 H   0  0  0  0  0  0  0  0  0  0  0  0
   -4.7270   -0.8335    0.0000 C   0  0  0  0  0  0  0  0  0  0  0  0
   -6.3028   -1.1113    0.0000 H   0  0  0  0  0  0  0  0  0  0  0  0
   -4.1797    0.6699    0.0000 C   0  0  0  0  0  0  0  0  0  0  0  0
   -5.2082    1.8957    0.0000 H   0  0  0  0  0  0  0  0  0  0  0  0
   -2.6043    0.9479    0.0000 C   0  0  0  0  0  0  0  0  0  0  0  0
   -2.0570    2.4513    0.0000 H   0  0  0  0  0  0  0  0  0  0  0  0
    1.5757    0.2778    0.0000 C   0  0  0  0  0  0  0  0  0  0  0  0
    2.6041   -0.9478    0.0000 C   0  0  0  0  0  0  0  0  0  0  0  0
    2.0568   -2.4514    0.0000 H   0  0  0  0  0  0  0  0  0  0  0  0
    4.1799   -0.6700    0.0000 C   0  0  0  0  0  0  0  0  0  0  0  0
    5.2084   -1.8957    0.0000 H   0  0  0  0  0  0  0  0  0  0  0  0
    4.7272    0.8336    0.0000 C   0  0  0  0  0  0  0  0  0  0  0  0
    6.3026    1.1114    0.0000 N   0  0  0  0  0  0  0  0  0  0  0  0
    6.5806    2.6870    0.0000 H   0  0  0  0  0  0  0  0  0  0  0  0
    7.6886    0.3113    0.0000 C   0  0  0  0  0  0  0  0  0  0  0  0
    7.6886   -1.2886    0.0000 C   0  0  0  0  0  0  0  0  0  0  0  0
    6.3026   -2.0887    0.0000 H   0  0  0  0  0  0  0  0  0  0  0  0
    9.0742   -2.0887    0.0000 C   0  0  0  0  0  0  0  0  0  0  0  0
    9.0742   -3.6886    0.0000 H   0  0  0  0  0  0  0  0  0  0  0  0
   10.4598   -1.2886    0.0000 C   0  0  0  0  0  0  0  0  0  0  0  0
   11.8454   -2.0887    0.0000 C   0  0  0  0  0  0  0  0  0  0  0  0
   10.8170   -3.3143    0.0000 C   0  0  0  0  0  0  0  0  0  0  0  0
    9.7885   -4.5400    0.0000 H   0  0  0  0  0  0  0  0  0  0  0  0
   11.3643   -4.8178    0.0000 H   0  0  0  0  0  0  0  0  0  0  0  0
   12.3927   -3.5921    0.0000 H   0  0  0  0  0  0  0  0  0  0  0  0
   12.8739   -0.8630    0.0000 C   0  0  0  0  0  0  0  0  0  0  0  0
   13.9023    0.3626    0.0000 H   0  0  0  0  0  0  0  0  0  0  0  0
   12.3266    0.6406    0.0000 H   0  0  0  0  0  0  0  0  0  0  0  0
   11.2981   -0.5852    0.0000 H   0  0  0  0  0  0  0  0  0  0  0  0
   13.2311   -2.8886    0.0000 C   0  0  0  0  0  0  0  0  0  0  0  0
   13.2311   -4.4887    0.0000 C   0  0  0  0  0  0  0  0  0  0  0  0
   12.2026   -5.7143    0.0000 H   0  0  0  0  0  0  0  0  0  0  0  0
   14.6167   -5.2886    0.0000 C   0  0  0  0  0  0  0  0  0  0  0  0
   14.6167   -6.8887    0.0000 H   0  0  0  0  0  0  0  0  0  0  0  0
   16.0023   -4.4887    0.0000 C   0  0  0  0  0  0  0  0  0  0  0  0
   17.3879   -5.2886    0.0000 H   0  0  0  0  0  0  0  0  0  0  0  0
   16.0023   -2.8886    0.0000 C   0  0  0  0  0  0  0  0  0  0  0  0
   17.3879   -2.0887    0.0000 H   0  0  0  0  0  0  0  0  0  0  0  0
   14.6167   -2.0887    0.0000 C   0  0  0  0  0  0  0  0  0  0  0  0
   14.6167   -0.4887    0.0000 H   0  0  0  0  0  0  0  0  0  0  0  0
   10.4598    0.3113    0.0000 C   0  0  0  0  0  0  0  0  0  0  0  0
   11.4883    1.5370    0.0000 H   0  0  0  0  0  0  0  0  0  0  0  0
    9.0742    1.1114    0.0000 C   0  0  0  0  0  0  0  0  0  0  0  0
    9.0742    2.7114    0.0000 H   0  0  0  0  0  0  0  0  0  0  0  0
    3.6988    2.0591    0.0000 C   0  0  0  0  0  0  0  0  0  0  0  0
    4.2457    3.5627    0.0000 H   0  0  0  0  0  0  0  0  0  0  0  0
    2.1230    1.7813    0.0000 C   0  0  0  0  0  0  0  0  0  0  0  0
    1.5757    3.2849    0.0000 H   0  0  0  0  0  0  0  0  0  0  0  0
  1  2  1  0  0  0  0
  1  3  1  0  0  0  0
  1  4  1  0  0  0  0
  1  5  1  0  0  0  0
  5  6  1  0  0  0  0
  6  7  1  0  0  0  0
  6  8  1  0  0  0  0
  6  9  1  0  0  0  0
  5 10  1  0  0  0  0
 10 11  1  0  0  0  0
 11 12  1  0  0  0  0
 11 13  2  0  0  0  0
 13 14  1  0  0  0  0
 13 15  1  0  0  0  0
 15 16  1  0  0  0  0
 15 17  2  0  0  0  0
 17 18  1  0  0  0  0
 17 19  1  0  0  0  0
 19 10  2  0  0  0  0
 19 20  1  0  0  0  0
  5 21  1  0  0  0  0
 21 22  1  0  0  0  0
 22 23  1  0  0  0  0
 22 24  2  0  0  0  0
 24 25  1  0  0  0  0
 24 26  1  0  0  0  0
 26 27  1  0  0  0  0
 27 28  1  0  0  0  0
 27 29  1  0  0  0  0
 29 30  1  0  0  0  0
 30 31  1  0  0  0  0
 30 32  2  0  0  0  0
 32 33  1  0  0  0  0
 32 34  1  0  0  0  0
 34 35  1  0  0  0  0
 35 36  1  0  0  0  0
 36 37  1  0  0  0  0
 36 38  1  0  0  0  0
 36 39  1  0  0  0  0
 35 40  1  0  0  0  0
 40 41  1  0  0  0  0
 40 42  1  0  0  0  0
 40 43  1  0  0  0  0
 35 44  1  0  0  0  0
 44 45  1  0  0  0  0
 45 46  1  0  0  0  0
 45 47  2  0  0  0  0
 47 48  1  0  0  0  0
 47 49  1  0  0  0  0
 49 50  1  0  0  0  0
 49 51  2  0  0  0  0
 51 52  1  0  0  0  0
 51 53  1  0  0  0  0
 53 44  2  0  0  0  0
 53 54  1  0  0  0  0
 34 55  2  0  0  0  0
 55 56  1  0  0  0  0
 55 57  1  0  0  0  0
 57 29  2  0  0  0  0
 57 58  1  0  0  0  0
 26 59  2  0  0  0  0
 59 60  1  0  0  0  0
 59 61  1  0  0  0  0
 61 21  2  0  0  0  0
 61 62  1  0  0  0  0
M  END
> <ChemID>
201437

> <source_casrn>
10081-67-1

> <CAS>
10081-67-1

> <SMILES>
CC(C)(c1ccccc1)c2ccc(Nc3ccc(cc3)C(C)(C)c4ccccc4)cc2

> <NAME>


> <preferred_name>
4-(2-Phenylpropan-2-yl)-N-[4-(2-phenylpropan-2-yl)phenyl]aniline

> <iupac>
4-(2-phenylpropan-2-yl)-N-[4-(2-phenylpropan-2-yl)phenyl]aniline

> <MPID>
101283

> <dsstox_substance_id>
DTXSID0027721

> <Canonical_QSARr>
CC(C)(c1ccc(cc1)Nc1ccc(cc1)C(C)(C)c1ccccc1)c1ccccc1

> <InChI_Code_QSARr>
InChI=1S/C30H31N/c1-29(2,23-11-7-5-8-12-23)25-15-19-27(20-16-25)31-28-21-17-26(18-22-28)30(3,4)24-13-9-6-10-14-24/h5-22,31H,1-4H3

> <InChI Key_QSARr>
UJAWGGOCYUPCPS-UHFFFAOYSA-N

> <Salt_Solvent>


> <Ready_Biodeg>
0.0

$$$$
201441
  -INDIGO-08031722522D

 17 16  0  0  0  0  0  0  0  0999 V2000
    0.8000   -1.3856    0.0000 C   0  0  0  0  0  0  0  0  0  0  0  0
    1.6001   -2.7713    0.0000 H   0  0  0  0  0  0  0  0  0  0  0  0
    0.0001   -2.7713    0.0000 H   0  0  0  0  0  0  0  0  0  0  0  0
    2.4000   -1.3856    0.0000 H   0  0  0  0  0  0  0  0  0  0  0  0
    0.0001    0.0000    0.0000 C   0  0  0  0  0  0  0  0  0  0  0  0
    0.8000    1.3856    0.0000 C   0  0  0  0  0  0  0  0  0  0  0  0
    1.6001    2.7713    0.0000 H   0  0  0  0  0  0  0  0  0  0  0  0
    2.4000    1.3856    0.0000 H   0  0  0  0  0  0  0  0  0  0  0  0
    0.0001    2.7713    0.0000 H   0  0  0  0  0  0  0  0  0  0  0  0
   -1.5999    0.0000    0.0000 C   0  0  0  0  0  0  0  0  0  0  0  0
   -2.4000   -1.3856    0.0000 H   0  0  0  0  0  0  0  0  0  0  0  0
   -2.4000    1.3856    0.0000 C   0  0  0  0  0  0  0  0  0  0  0  0
   -4.0000    1.3856    0.0000 C   0  0  0  0  0  0  0  0  0  0  0  0
   -5.6000    1.3856    0.0000 H   0  0  0  0  0  0  0  0  0  0  0  0
   -4.8001    2.7713    0.0000 H   0  0  0  0  0  0  0  0  0  0  0  0
   -4.8001    0.0000    0.0000 H   0  0  0  0  0  0  0  0  0  0  0  0
   -1.5999    2.7713    0.0000 O   0  0  0  0  0  0  0  0  0  0  0  0
  1  2  1  0  0  0  0
  1  3  1  0  0  0  0
  1  4  1  0  0  0  0
  1  5  1  0  0  0  0
  5  6  1  0  0  0  0
  6  7  1  0  0  0  0
  6  8  1  0  0  0  0
  6  9  1  0  0  0  0
  5 10  2  0  0  0  0
 10 11  1  0  0  0  0
 10 12  1  0  0  0  0
 12 13  1  0  0  0  0
 13 14  1  0  0  0  0
 13 15  1  0  0  0  0
 13 16  1  0  0  0  0
 12 17  2  0  0  0  0
M  END
> <ChemID>
201441

> <source_casrn>
141-79-7

> <CAS>
141-79-7

> <SMILES>
CC(C)=CC(C)=O

> <NAME>


> <preferred_name>
4-Methylpent-3-en-2-one

> <iupac>
4-methylpent-3-en-2-one

> <MPID>
101287

> <dsstox_substance_id>
DTXSID1029170

> <Canonical_QSARr>
CC(C)=CC(C)=O

> <InChI_Code_QSARr>
InChI=1S/C6H10O/c1-5(2)4-6(3)7/h4H,1-3H3

> <InChI Key_QSARr>
SHOJXDKTYKFBRD-UHFFFAOYSA-N

> <Salt_Solvent>


> <Ready_Biodeg>
1.0

$$$$
201445
  -INDIGO-08031722522D

 29 28  0  0  0  0  0  0  0  0999 V2000
    5.5425   -1.6000    0.0000 C   0  0  0  0  0  0  0  0  0  0  0  0
    5.5425   -3.2000    0.0000 H   0  0  0  0  0  0  0  0  0  0  0  0
    6.9282   -2.4000    0.0000 H   0  0  0  0  0  0  0  0  0  0  0  0
    4.1569   -2.4000    0.0000 H   0  0  0  0  0  0  0  0  0  0  0  0
    5.5425   -0.0001    0.0000 C   0  0  0  0  0  0  0  0  0  0  0  0
    6.9282    0.8000    0.0000 C   0  0  0  0  0  0  0  0  0  0  0  0
    8.3138    1.6000    0.0000 H   0  0  0  0  0  0  0  0  0  0  0  0
    8.3138   -0.0001    0.0000 H   0  0  0  0  0  0  0  0  0  0  0  0
    6.9282    2.4000    0.0000 H   0  0  0  0  0  0  0  0  0  0  0  0
    4.1569    0.8000    0.0000 C   0  0  0  0  0  0  0  0  0  0  0  0
    4.1569    2.4000    0.0000 H   0  0  0  0  0  0  0  0  0  0  0  0
    2.7712   -0.0001    0.0000 C   0  0  0  0  0  0  0  0  0  0  0  0
    3.3835   -1.4782    0.0000 H   0  0  0  0  0  0  0  0  0  0  0  0
    2.1590   -1.4782    0.0000 H   0  0  0  0  0  0  0  0  0  0  0  0
    1.3857    0.8000    0.0000 C   0  0  0  0  0  0  0  0  0  0  0  0
    0.7734    2.2782    0.0000 H   0  0  0  0  0  0  0  0  0  0  0  0
    1.9979    2.2782    0.0000 H   0  0  0  0  0  0  0  0  0  0  0  0
    0.0000   -0.0001    0.0000 C   0  0  0  0  0  0  0  0  0  0  0  0
   -1.3856   -0.8000    0.0000 C   0  0  0  0  0  0  0  0  0  0  0  0
   -2.7713   -1.6000    0.0000 H   0  0  0  0  0  0  0  0  0  0  0  0
   -2.7713   -0.0001    0.0000 H   0  0  0  0  0  0  0  0  0  0  0  0
   -1.3856   -2.4000    0.0000 H   0  0  0  0  0  0  0  0  0  0  0  0
    0.7999   -1.3857    0.0000 O   0  0  0  0  0  0  0  0  0  0  0  0
    0.0000   -2.7713    0.0000 H   0  0  0  0  0  0  0  0  0  0  0  0
   -0.8000    1.3857    0.0000 C   0  0  0  0  0  0  0  0  0  0  0  0
   -2.4000    1.3857    0.0000 H   0  0  0  0  0  0  0  0  0  0  0  0
   -0.2528    2.8892    0.0000 C   0  0  0  0  0  0  0  0  0  0  0  0
   -1.2813    4.1148    0.0000 H   0  0  0  0  0  0  0  0  0  0  0  0
    1.3230    3.1670    0.0000 H   0  0  0  0  0  0  0  0  0  0  0  0
  1  2  1  0  0  0  0
  1  3  1  0  0  0  0
  1  4  1  0  0  0  0
  1  5  1  0  0  0  0
  5  6  1  0  0  0  0
  6  7  1  0  0  0  0
  6  8  1  0  0  0  0
  6  9  1  0  0  0  0
  5 10  2  0  0  0  0
 10 11  1  0  0  0  0
 10 12  1  0  0  0  0
 12 13  1  0  0  0  0
 12 14  1  0  0  0  0
 12 15  1  0  0  0  0
 15 16  1  0  0  0  0
 15 17  1  0  0  0  0
 15 18  1  0  0  0  0
 18 19  1  0  0  0  0
 19 20  1  0  0  0  0
 19 21  1  0  0  0  0
 19 22  1  0  0  0  0
 18 23  1  0  0  0  0
 23 24  1  0  0  0  0
 18 25  1  0  0  0  0
 25 26  1  0  0  0  0
 25 27  2  0  0  0  0
 27 28  1  0  0  0  0
 27 29  1  0  0  0  0
M  END
> <ChemID>
201445

> <source_casrn>
78-70-6

> <CAS>
78-70-6

> <SMILES>
CC(C)=CCCC(C)(O)C=C

> <NAME>


> <preferred_name>
Linalool

> <iupac>
3,7-dimethylocta-1,6-dien-3-ol

> <MPID>
101290

> <dsstox_substance_id>
DTXSID7025502

> <Canonical_QSARr>
CC(C)=CCCC(C)(O)C=C

> <InChI_Code_QSARr>
InChI=1S/C10H18O/c1-5-10(4,11)8-6-7-9(2)3/h5,7,11H,1,6,8H2,2-4H3

> <InChI Key_QSARr>
CDOSHBSSFJOMGT-UHFFFAOYSA-N

> <Salt_Solvent>


> <Ready_Biodeg>
1.0

$$$$
201453
  -INDIGO-08031722522D

 16 15  0  0  0  0  0  0  0  0999 V2000
    0.8000    1.3856    0.0000 C   0  0  0  0  0  0  0  0  0  0  0  0
    1.6000    2.7713    0.0000 H   0  0  0  0  0  0  0  0  0  0  0  0
    0.0000    2.7713    0.0000 H   0  0  0  0  0  0  0  0  0  0  0  0
    2.4000    1.3856    0.0000 H   0  0  0  0  0  0  0  0  0  0  0  0
    0.0000    0.0000    0.0000 C   0  0  0  0  0  0  0  0  0  0  0  0
   -0.8000   -1.3856    0.0000 H   0  0  0  0  0  0  0  0  0  0  0  0
    1.3856   -0.8000    0.0000 C   0  0  0  0  0  0  0  0  0  0  0  0
    2.7713   -1.6000    0.0000 H   0  0  0  0  0  0  0  0  0  0  0  0
    1.3856   -2.4000    0.0000 H   0  0  0  0  0  0  0  0  0  0  0  0
    2.7713    0.0000    0.0000 H   0  0  0  0  0  0  0  0  0  0  0  0
   -1.3856    0.8000    0.0000 C   0  0  0  0  0  0  0  0  0  0  0  0
   -2.7713    0.0000    0.0000 C   0  0  0  0  0  0  0  0  0  0  0  0
   -4.1569   -0.8000    0.0000 H   0  0  0  0  0  0  0  0  0  0  0  0
   -4.1569    0.8000    0.0000 H   0  0  0  0  0  0  0  0  0  0  0  0
   -2.7713   -1.6000    0.0000 H   0  0  0  0  0  0  0  0  0  0  0  0
   -1.3856    2.4000    0.0000 O   0  0  0  0  0  0  0  0  0  0  0  0
  1  2  1  0  0  0  0
  1  3  1  0  0  0  0
  1  4  1  0  0  0  0
  1  5  1  0  0  0  0
  5  6  1  0  0  0  0
  5  7  1  0  0  0  0
  7  8  1  0  0  0  0
  7  9  1  0  0  0  0
  7 10  1  0  0  0  0
  5 11  1  0  0  0  0
 11 12  1  0  0  0  0
 12 13  1  0  0  0  0
 12 14  1  0  0  0  0
 12 15  1  0  0  0  0
 11 16  2  0  0  0  0
M  END
> <ChemID>
201453

> <source_casrn>
563-80-4

> <CAS>
563-80-4

> <SMILES>
CC(C)C(C)=O

> <NAME>


> <preferred_name>
3-Methyl-2-butanone

> <iupac>
3-methylbutan-2-one

> <MPID>
101293

> <dsstox_substance_id>
DTXSID0022062

> <Canonical_QSARr>
CC(C)C(C)=O

> <InChI_Code_QSARr>
InChI=1S/C5H10O/c1-4(2)5(3)6/h4H,1-3H3

> <InChI Key_QSARr>
SYBYTAAJFKOIEJ-UHFFFAOYSA-N

> <Salt_Solvent>


> <Ready_Biodeg>
1.0

$$$$
201461
  -INDIGO-08031722522D

 26 25  0  0  0  0  0  0  0  0999 V2000
    3.5713   -1.3857    0.0000 C   0  0  0  0  0  0  0  0  0  0  0  0
    4.3713   -2.7713    0.0000 H   0  0  0  0  0  0  0  0  0  0  0  0
    3.0240   -2.8891    0.0000 H   0  0  0  0  0  0  0  0  0  0  0  0
    5.1712   -1.3857    0.0000 H   0  0  0  0  0  0  0  0  0  0  0  0
    2.7713    0.0000    0.0000 C   0  0  0  0  0  0  0  0  0  0  0  0
    1.9713    1.3857    0.0000 H   0  0  0  0  0  0  0  0  0  0  0  0
    4.1570    0.8000    0.0000 C   0  0  0  0  0  0  0  0  0  0  0  0
    5.5426    1.6000    0.0000 H   0  0  0  0  0  0  0  0  0  0  0  0
    5.5426    0.0000    0.0000 H   0  0  0  0  0  0  0  0  0  0  0  0
    4.1570    2.4000    0.0000 H   0  0  0  0  0  0  0  0  0  0  0  0
    1.3857   -0.8000    0.0000 C   0  0  0  0  0  0  0  0  0  0  0  0
    1.9979   -2.2782    0.0000 H   0  0  0  0  0  0  0  0  0  0  0  0
    0.7733   -2.2782    0.0000 H   0  0  0  0  0  0  0  0  0  0  0  0
    0.0000    0.0000    0.0000 C   0  0  0  0  0  0  0  0  0  0  0  0
   -1.3856    0.8000    0.0000 C   0  0  0  0  0  0  0  0  0  0  0  0
   -2.7713    1.6000    0.0000 H   0  0  0  0  0  0  0  0  0  0  0  0
   -2.7713    0.0000    0.0000 H   0  0  0  0  0  0  0  0  0  0  0  0
   -1.6635    2.3757    0.0000 H   0  0  0  0  0  0  0  0  0  0  0  0
    0.8000    1.3857    0.0000 C   0  0  0  0  0  0  0  0  0  0  0  0
    1.8284    2.6113    0.0000 H   0  0  0  0  0  0  0  0  0  0  0  0
    0.2527    2.8891    0.0000 H   0  0  0  0  0  0  0  0  0  0  0  0
   -0.7756    1.6635    0.0000 H   0  0  0  0  0  0  0  0  0  0  0  0
   -0.8000   -1.3857    0.0000 C   0  0  0  0  0  0  0  0  0  0  0  0
   -1.6000   -2.7713    0.0000 H   0  0  0  0  0  0  0  0  0  0  0  0
   -0.2527   -2.8891    0.0000 H   0  0  0  0  0  0  0  0  0  0  0  0
   -2.4000   -1.3857    0.0000 H   0  0  0  0  0  0  0  0  0  0  0  0
  1  2  1  0  0  0  0
  1  3  1  0  0  0  0
  1  4  1  0  0  0  0
  1  5  1  0  0  0  0
  5  6  1  0  0  0  0
  5  7  1  0  0  0  0
  7  8  1  0  0  0  0
  7  9  1  0  0  0  0
  7 10  1  0  0  0  0
  5 11  1  0  0  0  0
 11 12  1  0  0  0  0
 11 13  1  0  0  0  0
 11 14  1  0  0  0  0
 14 15  1  0  0  0  0
 15 16  1  0  0  0  0
 15 17  1  0  0  0  0
 15 18  1  0  0  0  0
 14 19  1  0  0  0  0
 19 20  1  0  0  0  0
 19 21  1  0  0  0  0
 19 22  1  0  0  0  0
 14 23  1  0  0  0  0
 23 24  1  0  0  0  0
 23 25  1  0  0  0  0
 23 26  1  0  0  0  0
M  END
> <ChemID>
201461

> <source_casrn>
540-84-1

> <CAS>
540-84-1

> <SMILES>
CC(C)CC(C)(C)C

> <NAME>


> <preferred_name>
2,2,4-Trimethylpentane

> <iupac>
2,2,4-trimethylpentane

> <MPID>
101298

> <dsstox_substance_id>
DTXSID7024370

> <Canonical_QSARr>
CC(C)CC(C)(C)C

> <InChI_Code_QSARr>
InChI=1S/C8H18/c1-7(2)6-8(3,4)5/h7H,6H2,1-5H3

> <InChI Key_QSARr>
NHTMVDHEPJAVLT-UHFFFAOYSA-N

> <Salt_Solvent>


> <Ready_Biodeg>
0.0

$$$$
201465
  -INDIGO-08031722522D

 56 55  0  0  0  0  0  0  0  0999 V2000
    0.8001    1.3857    0.0000 C   0  0  0  0  0  0  0  0  0  0  0  0
    1.6000    2.7713    0.0000 H   0  0  0  0  0  0  0  0  0  0  0  0
    0.0001    2.7713    0.0000 H   0  0  0  0  0  0  0  0  0  0  0  0
    2.4000    1.3857    0.0000 H   0  0  0  0  0  0  0  0  0  0  0  0
    0.0001   -0.0001    0.0000 C   0  0  0  0  0  0  0  0  0  0  0  0
   -0.7999   -1.3857    0.0000 H   0  0  0  0  0  0  0  0  0  0  0  0
    1.3857   -0.8000    0.0000 C   0  0  0  0  0  0  0  0  0  0  0  0
    2.7713   -1.6000    0.0000 H   0  0  0  0  0  0  0  0  0  0  0  0
    1.3857   -2.4000    0.0000 H   0  0  0  0  0  0  0  0  0  0  0  0
    2.7713   -0.0001    0.0000 H   0  0  0  0  0  0  0  0  0  0  0  0
   -1.5034    0.5473    0.0000 C   0  0  0  0  0  0  0  0  0  0  0  0
   -1.1572    2.1093    0.0000 H   0  0  0  0  0  0  0  0  0  0  0  0
   -2.3631    1.8967    0.0000 H   0  0  0  0  0  0  0  0  0  0  0  0
   -2.7292   -0.4812    0.0000 C   0  0  0  0  0  0  0  0  0  0  0  0
   -3.0754   -2.0433    0.0000 H   0  0  0  0  0  0  0  0  0  0  0  0
   -1.8695   -1.8306    0.0000 H   0  0  0  0  0  0  0  0  0  0  0  0
   -4.2327    0.0660    0.0000 C   0  0  0  0  0  0  0  0  0  0  0  0
   -3.8865    1.6281    0.0000 H   0  0  0  0  0  0  0  0  0  0  0  0
   -5.0925    1.4154    0.0000 H   0  0  0  0  0  0  0  0  0  0  0  0
   -5.4582   -0.9625    0.0000 C   0  0  0  0  0  0  0  0  0  0  0  0
   -5.8048   -2.5245    0.0000 H   0  0  0  0  0  0  0  0  0  0  0  0
   -4.5989   -2.3119    0.0000 H   0  0  0  0  0  0  0  0  0  0  0  0
   -6.9617   -0.4153    0.0000 C   0  0  0  0  0  0  0  0  0  0  0  0
   -6.6155    1.1469    0.0000 H   0  0  0  0  0  0  0  0  0  0  0  0
   -7.8214    0.9343    0.0000 H   0  0  0  0  0  0  0  0  0  0  0  0
   -8.1875   -1.4437    0.0000 C   0  0  0  0  0  0  0  0  0  0  0  0
   -8.5337   -3.0057    0.0000 H   0  0  0  0  0  0  0  0  0  0  0  0
   -7.3278   -2.7931    0.0000 H   0  0  0  0  0  0  0  0  0  0  0  0
   -9.6910   -0.8964    0.0000 C   0  0  0  0  0  0  0  0  0  0  0  0
   -9.3448    0.6656    0.0000 H   0  0  0  0  0  0  0  0  0  0  0  0
  -10.5507    0.4530    0.0000 H   0  0  0  0  0  0  0  0  0  0  0  0
  -10.9169   -1.9249    0.0000 C   0  0  0  0  0  0  0  0  0  0  0  0
  -11.2631   -3.4870    0.0000 H   0  0  0  0  0  0  0  0  0  0  0  0
  -10.0571   -3.2743    0.0000 H   0  0  0  0  0  0  0  0  0  0  0  0
  -12.4204   -1.3777    0.0000 C   0  0  0  0  0  0  0  0  0  0  0  0
  -12.0738    0.1843    0.0000 H   0  0  0  0  0  0  0  0  0  0  0  0
  -13.2801   -0.0283    0.0000 H   0  0  0  0  0  0  0  0  0  0  0  0
  -13.6458   -2.4061    0.0000 C   0  0  0  0  0  0  0  0  0  0  0  0
  -13.9920   -3.9683    0.0000 H   0  0  0  0  0  0  0  0  0  0  0  0
  -12.7861   -3.7555    0.0000 H   0  0  0  0  0  0  0  0  0  0  0  0
  -15.1493   -1.8589    0.0000 C   0  0  0  0  0  0  0  0  0  0  0  0
  -14.8031   -0.2968    0.0000 H   0  0  0  0  0  0  0  0  0  0  0  0
  -16.0090   -0.5095    0.0000 H   0  0  0  0  0  0  0  0  0  0  0  0
  -16.3751   -2.8874    0.0000 C   0  0  0  0  0  0  0  0  0  0  0  0
  -16.7213   -4.4494    0.0000 H   0  0  0  0  0  0  0  0  0  0  0  0
  -15.5154   -4.2368    0.0000 H   0  0  0  0  0  0  0  0  0  0  0  0
  -17.8787   -2.3401    0.0000 C   0  0  0  0  0  0  0  0  0  0  0  0
  -17.5325   -0.7781    0.0000 H   0  0  0  0  0  0  0  0  0  0  0  0
  -18.7384   -0.9907    0.0000 H   0  0  0  0  0  0  0  0  0  0  0  0
  -19.1041   -3.3685    0.0000 C   0  0  0  0  0  0  0  0  0  0  0  0
  -19.4507   -4.9307    0.0000 H   0  0  0  0  0  0  0  0  0  0  0  0
  -18.2448   -4.7181    0.0000 H   0  0  0  0  0  0  0  0  0  0  0  0
  -20.6076   -2.8213    0.0000 C   0  0  0  0  0  0  0  0  0  0  0  0
  -21.8334   -3.8498    0.0000 O   0  0  0  0  0  0  0  0  0  0  0  0
  -23.3369   -3.3026    0.0000 H   0  0  0  0  0  0  0  0  0  0  0  0
  -20.8857   -1.2457    0.0000 O   0  0  0  0  0  0  0  0  0  0  0  0
  1  2  1  0  0  0  0
  1  3  1  0  0  0  0
  1  4  1  0  0  0  0
  1  5  1  0  0  0  0
  5  6  1  0  0  0  0
  5  7  1  0  0  0  0
  7  8  1  0  0  0  0
  7  9  1  0  0  0  0
  7 10  1  0  0  0  0
  5 11  1  0  0  0  0
 11 12  1  0  0  0  0
 11 13  1  0  0  0  0
 11 14  1  0  0  0  0
 14 15  1  0  0  0  0
 14 16  1  0  0  0  0
 14 17  1  0  0  0  0
 17 18  1  0  0  0  0
 17 19  1  0  0  0  0
 17 20  1  0  0  0  0
 20 21  1  0  0  0  0
 20 22  1  0  0  0  0
 20 23  1  0  0  0  0
 23 24  1  0  0  0  0
 23 25  1  0  0  0  0
 23 26  1  0  0  0  0
 26 27  1  0  0  0  0
 26 28  1  0  0  0  0
 26 29  1  0  0  0  0
 29 30  1  0  0  0  0
 29 31  1  0  0  0  0
 29 32  1  0  0  0  0
 32 33  1  0  0  0  0
 32 34  1  0  0  0  0
 32 35  1  0  0  0  0
 35 36  1  0  0  0  0
 35 37  1  0  0  0  0
 35 38  1  0  0  0  0
 38 39  1  0  0  0  0
 38 40  1  0  0  0  0
 38 41  1  0  0  0  0
 41 42  1  0  0  0  0
 41 43  1  0  0  0  0
 41 44  1  0  0  0  0
 44 45  1  0  0  0  0
 44 46  1  0  0  0  0
 44 47  1  0  0  0  0
 47 48  1  0  0  0  0
 47 49  1  0  0  0  0
 47 50  1  0  0  0  0
 50 51  1  0  0  0  0
 50 52  1  0  0  0  0
 50 53  1  0  0  0  0
 53 54  1  0  0  0  0
 54 55  1  0  0  0  0
 53 56  2  0  0  0  0
M  END
> <ChemID>
201465

> <source_casrn>
2724-58-5

> <CAS>
2724-58-5

> <SMILES>
CC(C)CCCCCCCCCCCCCCC(O)=O

> <NAME>


> <preferred_name>
Isostearic acid

> <iupac>
16-methylheptadecanoic acid

> <MPID>
101301

> <dsstox_substance_id>
DTXSID1040790

> <Canonical_QSARr>
CC(C)CCCCCCCCCCCCCCC(O)=O

> <InChI_Code_QSARr>
InChI=1S/C18H36O2/c1-17(2)15-13-11-9-7-5-3-4-6-8-10-12-14-16-18(19)20/h17H,3-16H2,1-2H3,(H,19,20)

> <InChI Key_QSARr>
XDOFQFKRPWOURC-UHFFFAOYSA-N

> <Salt_Solvent>


> <Ready_Biodeg>
1.0

$$$$
201473
  -INDIGO-08031722522D

 46 48  0  0  0  0  0  0  0  0999 V2000
    1.3857   -0.7999    0.0000 C   0  0  0  0  0  0  0  0  0  0  0  0
    2.7713   -1.5999    0.0000 H   0  0  0  0  0  0  0  0  0  0  0  0
    2.7713    0.0001    0.0000 H   0  0  0  0  0  0  0  0  0  0  0  0
    1.3857   -2.4001    0.0000 H   0  0  0  0  0  0  0  0  0  0  0  0
   -0.0001    0.0001    0.0000 C   0  0  0  0  0  0  0  0  0  0  0  0
   -1.3856    0.8000    0.0000 H   0  0  0  0  0  0  0  0  0  0  0  0
    0.8001    1.3856    0.0000 C   0  0  0  0  0  0  0  0  0  0  0  0
    1.6000    2.7713    0.0000 H   0  0  0  0  0  0  0  0  0  0  0  0
    2.3999    1.3856    0.0000 H   0  0  0  0  0  0  0  0  0  0  0  0
   -0.0001    2.7713    0.0000 H   0  0  0  0  0  0  0  0  0  0  0  0
   -0.8000   -1.3856    0.0000 N   0  0  0  0  0  0  0  0  0  0  0  0
   -0.0001   -2.7713    0.0000 H   0  0  0  0  0  0  0  0  0  0  0  0
   -2.4000   -1.3856    0.0000 C   0  0  0  0  0  0  0  0  0  0  0  0
   -3.2000    0.0001    0.0000 C   0  0  0  0  0  0  0  0  0  0  0  0
   -2.4000    1.3856    0.0000 H   0  0  0  0  0  0  0  0  0  0  0  0
   -4.8000    0.0001    0.0000 C   0  0  0  0  0  0  0  0  0  0  0  0
   -5.6000    1.3856    0.0000 H   0  0  0  0  0  0  0  0  0  0  0  0
   -5.6000   -1.3856    0.0000 C   0  0  0  0  0  0  0  0  0  0  0  0
   -7.2000   -1.3856    0.0000 N   0  0  0  0  0  0  0  0  0  0  0  0
   -7.9999   -2.7713    0.0000 H   0  0  0  0  0  0  0  0  0  0  0  0
   -7.9999    0.0001    0.0000 C   0  0  0  0  0  0  0  0  0  0  0  0
   -6.6144    0.8000    0.0000 H   0  0  0  0  0  0  0  0  0  0  0  0
   -8.8001    1.3856    0.0000 C   0  0  0  0  0  0  0  0  0  0  0  0
   -9.6000    2.7713    0.0000 H   0  0  0  0  0  0  0  0  0  0  0  0
  -10.3999    1.3856    0.0000 H   0  0  0  0  0  0  0  0  0  0  0  0
   -7.9999    2.7713    0.0000 H   0  0  0  0  0  0  0  0  0  0  0  0
   -9.3857   -0.7999    0.0000 C   0  0  0  0  0  0  0  0  0  0  0  0
  -10.7713   -1.5999    0.0000 H   0  0  0  0  0  0  0  0  0  0  0  0
  -10.7713    0.0001    0.0000 H   0  0  0  0  0  0  0  0  0  0  0  0
   -9.3857   -2.4001    0.0000 H   0  0  0  0  0  0  0  0  0  0  0  0
   -4.8000   -2.7713    0.0000 C   0  0  0  0  0  0  0  0  0  0  0  0
   -5.6000   -4.1569    0.0000 C   0  0  0  0  0  0  0  0  0  0  0  0
   -7.2000   -4.1569    0.0000 O   0  0  0  0  0  0  0  0  0  0  0  0
   -4.8000   -5.5426    0.0000 C   0  0  0  0  0  0  0  0  0  0  0  0
   -5.6000   -6.9283    0.0000 C   0  0  0  0  0  0  0  0  0  0  0  0
   -7.2000   -6.9283    0.0000 H   0  0  0  0  0  0  0  0  0  0  0  0
   -4.8000   -8.3138    0.0000 C   0  0  0  0  0  0  0  0  0  0  0  0
   -5.6000   -9.6995    0.0000 H   0  0  0  0  0  0  0  0  0  0  0  0
   -3.2000   -8.3138    0.0000 C   0  0  0  0  0  0  0  0  0  0  0  0
   -2.4000   -9.6995    0.0000 H   0  0  0  0  0  0  0  0  0  0  0  0
   -2.4000   -6.9283    0.0000 C   0  0  0  0  0  0  0  0  0  0  0  0
   -0.8000   -6.9283    0.0000 H   0  0  0  0  0  0  0  0  0  0  0  0
   -3.2000   -5.5426    0.0000 C   0  0  0  0  0  0  0  0  0  0  0  0
   -2.4000   -4.1569    0.0000 C   0  0  0  0  0  0  0  0  0  0  0  0
   -0.8000   -4.1569    0.0000 O   0  0  0  0  0  0  0  0  0  0  0  0
   -3.2000   -2.7713    0.0000 C   0  0  0  0  0  0  0  0  0  0  0  0
  1  2  1  0  0  0  0
  1  3  1  0  0  0  0
  1  4  1  0  0  0  0
  1  5  1  0  0  0  0
  5  6  1  0  0  0  0
  5  7  1  0  0  0  0
  7  8  1  0  0  0  0
  7  9  1  0  0  0  0
  7 10  1  0  0  0  0
  5 11  1  0  0  0  0
 11 12  1  0  0  0  0
 11 13  1  0  0  0  0
 13 14  1  0  0  0  0
 14 15  1  0  0  0  0
 14 16  2  0  0  0  0
 16 17  1  0  0  0  0
 16 18  1  0  0  0  0
 18 19  1  0  0  0  0
 19 20  1  0  0  0  0
 19 21  1  0  0  0  0
 21 22  1  0  0  0  0
 21 23  1  0  0  0  0
 23 24  1  0  0  0  0
 23 25  1  0  0  0  0
 23 26  1  0  0  0  0
 21 27  1  0  0  0  0
 27 28  1  0  0  0  0
 27 29  1  0  0  0  0
 27 30  1  0  0  0  0
 18 31  2  0  0  0  0
 31 32  1  0  0  0  0
 32 33  2  0  0  0  0
 32 34  1  0  0  0  0
 34 35  1  0  0  0  0
 35 36  1  0  0  0  0
 35 37  2  0  0  0  0
 37 38  1  0  0  0  0
 37 39  1  0  0  0  0
 39 40  1  0  0  0  0
 39 41  2  0  0  0  0
 41 42  1  0  0  0  0
 41 43  1  0  0  0  0
 43 34  2  0  0  0  0
 43 44  1  0  0  0  0
 44 45  2  0  0  0  0
 44 46  1  0  0  0  0
 46 13  2  0  0  0  0
 46 31  1  0  0  0  0
M  END
> <ChemID>
201473

> <source_casrn>
14233-37-5

> <CAS>
14233-37-5

> <SMILES>
CC(C)Nc1ccc(NC(C)C)c2C(=O)c3ccccc3C(=O)c12

> <NAME>


> <preferred_name>
1,4-Bis(N-isopropylamino)anthraquinone

> <iupac>
1,4-bis(propan-2-ylamino)anthracene-9,10-dione

> <MPID>
101303

> <dsstox_substance_id>
DTXSID2041250

> <Canonical_QSARr>
CC(C)Nc1ccc(NC(C)C)c2c1C(=O)c1ccccc1C2=O

> <InChI_Code_QSARr>
InChI=1S/C20H22N2O2/c1-11(2)21-15-9-10-16(22-12(3)4)18-17(15)19(23)13-7-5-6-8-14(13)20(18)24/h5-12,21-22H,1-4H3

> <InChI Key_QSARr>
BLFZMXOCPASACY-UHFFFAOYSA-N

> <Salt_Solvent>


> <Ready_Biodeg>
0.0

$$$$
201477
  -INDIGO-08031722522D

 28 27  0  0  0  0  0  0  0  0999 V2000
    7.7283   -0.5857    0.0000 C   0  0  0  0  0  0  0  0  0  0  0  0
    8.5282   -1.9713    0.0000 H   0  0  0  0  0  0  0  0  0  0  0  0
    6.9283   -1.9713    0.0000 H   0  0  0  0  0  0  0  0  0  0  0  0
    9.3282   -0.5857    0.0000 H   0  0  0  0  0  0  0  0  0  0  0  0
    6.9283    0.8000    0.0000 C   0  0  0  0  0  0  0  0  0  0  0  0
    6.1283    2.1856    0.0000 H   0  0  0  0  0  0  0  0  0  0  0  0
    8.3138    1.6000    0.0000 C   0  0  0  0  0  0  0  0  0  0  0  0
    9.6995    2.4000    0.0000 H   0  0  0  0  0  0  0  0  0  0  0  0
    9.6995    0.8000    0.0000 H   0  0  0  0  0  0  0  0  0  0  0  0
    8.3138    3.2000    0.0000 H   0  0  0  0  0  0  0  0  0  0  0  0
    5.5426    0.0000    0.0000 O   0  0  0  0  0  0  0  0  0  0  0  0
    4.1569    0.8000    0.0000 C   0  0  0  0  0  0  0  0  0  0  0  0
    4.1569    2.4000    0.0000 O   0  0  0  0  0  0  0  0  0  0  0  0
    2.7713    0.0000    0.0000 O   0  0  0  0  0  0  0  0  0  0  0  0
    1.3856    0.8000    0.0000 O   0  0  0  0  0  0  0  0  0  0  0  0
   -0.0001    0.0000    0.0000 C   0  0  0  0  0  0  0  0  0  0  0  0
   -0.8000    1.3856    0.0000 C   0  0  0  0  0  0  0  0  0  0  0  0
   -1.6000    2.7713    0.0000 H   0  0  0  0  0  0  0  0  0  0  0  0
   -0.0001    2.7713    0.0000 H   0  0  0  0  0  0  0  0  0  0  0  0
   -2.4000    1.3856    0.0000 H   0  0  0  0  0  0  0  0  0  0  0  0
   -1.3856   -0.8000    0.0000 C   0  0  0  0  0  0  0  0  0  0  0  0
   -2.7713   -1.6000    0.0000 H   0  0  0  0  0  0  0  0  0  0  0  0
   -1.3856   -2.4000    0.0000 H   0  0  0  0  0  0  0  0  0  0  0  0
   -2.7713    0.0000    0.0000 H   0  0  0  0  0  0  0  0  0  0  0  0
    0.7999   -1.3857    0.0000 C   0  0  0  0  0  0  0  0  0  0  0  0
    1.5999   -2.7713    0.0000 H   0  0  0  0  0  0  0  0  0  0  0  0
    2.4001   -1.3857    0.0000 H   0  0  0  0  0  0  0  0  0  0  0  0
   -0.0001   -2.7713    0.0000 H   0  0  0  0  0  0  0  0  0  0  0  0
  1  2  1  0  0  0  0
  1  3  1  0  0  0  0
  1  4  1  0  0  0  0
  1  5  1  0  0  0  0
  5  6  1  0  0  0  0
  5  7  1  0  0  0  0
  7  8  1  0  0  0  0
  7  9  1  0  0  0  0
  7 10  1  0  0  0  0
  5 11  1  0  0  0  0
 11 12  1  0  0  0  0
 12 13  2  0  0  0  0
 12 14  1  0  0  0  0
 14 15  1  0  0  0  0
 15 16  1  0  0  0  0
 16 17  1  0  0  0  0
 17 18  1  0  0  0  0
 17 19  1  0  0  0  0
 17 20  1  0  0  0  0
 16 21  1  0  0  0  0
 21 22  1  0  0  0  0
 21 23  1  0  0  0  0
 21 24  1  0  0  0  0
 16 25  1  0  0  0  0
 25 26  1  0  0  0  0
 25 27  1  0  0  0  0
 25 28  1  0  0  0  0
M  END
> <ChemID>
201477

> <source_casrn>
2372-21-6

> <CAS>
NOCAS_862908

> <SMILES>
CC(C)OC(=O)OOC(C)(C)C

> <NAME>


> <preferred_name>


> <iupac>


> <MPID>
101305

> <dsstox_substance_id>
DTXSID00862908

> <Canonical_QSARr>
CC(C)OC(=O)OOC(C)(C)C

> <InChI_Code_QSARr>
InChI=1S/C8H16O4/c1-6(2)10-7(9)11-12-8(3,4)5/h6H,1-5H3

> <InChI Key_QSARr>
KDGNCLDCOVTOCS-UHFFFAOYSA-N

> <Salt_Solvent>


> <Ready_Biodeg>
0.0

$$$$
201482
  -INDIGO-08031722522D

 23 23  0  0  0  0  0  0  0  0999 V2000
   -0.0001    1.6000    0.0000 C   0  0  0  0  0  0  0  0  0  0  0  0
   -0.0001    3.2000    0.0000 H   0  0  0  0  0  0  0  0  0  0  0  0
    1.3856    2.4000    0.0000 H   0  0  0  0  0  0  0  0  0  0  0  0
    1.3856    0.8000    0.0000 H   0  0  0  0  0  0  0  0  0  0  0  0
   -0.0001    0.0000    0.0000 C   0  0  0  0  0  0  0  0  0  0  0  0
   -0.0001   -1.6000    0.0000 H   0  0  0  0  0  0  0  0  0  0  0  0
    1.5757   -0.2778    0.0000 C   0  0  0  0  0  0  0  0  0  0  0  0
    3.1514   -0.5557    0.0000 H   0  0  0  0  0  0  0  0  0  0  0  0
    2.1230   -1.7813    0.0000 H   0  0  0  0  0  0  0  0  0  0  0  0
    2.6041    0.9478    0.0000 H   0  0  0  0  0  0  0  0  0  0  0  0
   -1.6000    0.0000    0.0000 C   0  0  0  0  0  0  0  0  0  0  0  0
   -2.4000    1.3856    0.0000 C   0  0  0  0  0  0  0  0  0  0  0  0
   -1.6000    2.7713    0.0000 H   0  0  0  0  0  0  0  0  0  0  0  0
   -4.0001    1.3856    0.0000 C   0  0  0  0  0  0  0  0  0  0  0  0
   -4.8001    2.7713    0.0000 H   0  0  0  0  0  0  0  0  0  0  0  0
   -4.8001    0.0000    0.0000 C   0  0  0  0  0  0  0  0  0  0  0  0
   -6.4000    0.0000    0.0000 C   0  0  0  0  0  0  0  0  0  0  0  0
   -7.2000   -1.3857    0.0000 H   0  0  0  0  0  0  0  0  0  0  0  0
   -7.2000    1.3856    0.0000 O   0  0  0  0  0  0  0  0  0  0  0  0
   -4.0001   -1.3857    0.0000 C   0  0  0  0  0  0  0  0  0  0  0  0
   -4.8001   -2.7713    0.0000 H   0  0  0  0  0  0  0  0  0  0  0  0
   -2.4000   -1.3857    0.0000 C   0  0  0  0  0  0  0  0  0  0  0  0
   -1.6000   -2.7713    0.0000 H   0  0  0  0  0  0  0  0  0  0  0  0
  1  2  1  0  0  0  0
  1  3  1  0  0  0  0
  1  4  1  0  0  0  0
  1  5  1  0  0  0  0
  5  6  1  0  0  0  0
  5  7  1  0  0  0  0
  7  8  1  0  0  0  0
  7  9  1  0  0  0  0
  7 10  1  0  0  0  0
  5 11  1  0  0  0  0
 11 12  1  0  0  0  0
 12 13  1  0  0  0  0
 12 14  2  0  0  0  0
 14 15  1  0  0  0  0
 14 16  1  0  0  0  0
 16 17  1  0  0  0  0
 17 18  1  0  0  0  0
 17 19  2  0  0  0  0
 16 20  2  0  0  0  0
 20 21  1  0  0  0  0
 20 22  1  0  0  0  0
 22 11  2  0  0  0  0
 22 23  1  0  0  0  0
M  END
> <ChemID>
201482

> <source_casrn>
122-03-2

> <CAS>
122-03-2

> <SMILES>
CC(C)c1ccc(C=O)cc1

> <NAME>


> <preferred_name>
4-Isopropylbenzaldehyde

> <iupac>
4-(propan-2-yl)benzaldehyde

> <MPID>
101308

> <dsstox_substance_id>
DTXSID9021974

> <Canonical_QSARr>
CC(C)c1ccc(C=O)cc1

> <InChI_Code_QSARr>
InChI=1S/C10H12O/c1-8(2)10-5-3-9(7-11)4-6-10/h3-8H,1-2H3

> <InChI Key_QSARr>
WTWBUQJHJGUZCY-UHFFFAOYSA-N

> <Salt_Solvent>


> <Ready_Biodeg>
1.0

$$$$
201486
  -INDIGO-08031722522D

 31 31  0  0  0  0  0  0  0  0999 V2000
    0.7999   -1.3856    0.0000 C   0  0  0  0  0  0  0  0  0  0  0  0
    1.6000   -2.7713    0.0000 H   0  0  0  0  0  0  0  0  0  0  0  0
    2.4000   -1.3856    0.0000 H   0  0  0  0  0  0  0  0  0  0  0  0
    1.6000   -0.0000    0.0000 H   0  0  0  0  0  0  0  0  0  0  0  0
    0.0001   -0.0000    0.0000 C   0  0  0  0  0  0  0  0  0  0  0  0
   -0.8000    1.3857    0.0000 H   0  0  0  0  0  0  0  0  0  0  0  0
    1.2256    1.0284    0.0000 C   0  0  0  0  0  0  0  0  0  0  0  0
    2.4514    2.0569    0.0000 H   0  0  0  0  0  0  0  0  0  0  0  0
    2.7292    0.4813    0.0000 H   0  0  0  0  0  0  0  0  0  0  0  0
    0.9478    2.6042    0.0000 H   0  0  0  0  0  0  0  0  0  0  0  0
   -1.3857   -0.8001    0.0000 C   0  0  0  0  0  0  0  0  0  0  0  0
   -1.3857   -2.4000    0.0000 C   0  0  0  0  0  0  0  0  0  0  0  0
    0.0001   -3.2000    0.0000 H   0  0  0  0  0  0  0  0  0  0  0  0
   -2.7712   -3.2000    0.0000 C   0  0  0  0  0  0  0  0  0  0  0  0
   -2.7712   -4.8000    0.0000 H   0  0  0  0  0  0  0  0  0  0  0  0
   -4.1569   -2.4000    0.0000 C   0  0  0  0  0  0  0  0  0  0  0  0
   -5.5426   -3.2000    0.0000 H   0  0  0  0  0  0  0  0  0  0  0  0
   -4.1569   -0.8001    0.0000 C   0  0  0  0  0  0  0  0  0  0  0  0
   -5.5426   -0.0000    0.0000 C   0  0  0  0  0  0  0  0  0  0  0  0
   -4.7426    1.3857    0.0000 H   0  0  0  0  0  0  0  0  0  0  0  0
   -6.7682    1.0284    0.0000 C   0  0  0  0  0  0  0  0  0  0  0  0
   -7.9939    2.0569    0.0000 H   0  0  0  0  0  0  0  0  0  0  0  0
   -8.2717    0.4813    0.0000 H   0  0  0  0  0  0  0  0  0  0  0  0
   -6.4904    2.6042    0.0000 H   0  0  0  0  0  0  0  0  0  0  0  0
   -6.3425   -1.3856    0.0000 C   0  0  0  0  0  0  0  0  0  0  0  0
   -7.1425   -2.7713    0.0000 H   0  0  0  0  0  0  0  0  0  0  0  0
   -7.9426   -1.3856    0.0000 H   0  0  0  0  0  0  0  0  0  0  0  0
   -7.1425   -0.0000    0.0000 H   0  0  0  0  0  0  0  0  0  0  0  0
   -2.7712   -0.0000    0.0000 C   0  0  0  0  0  0  0  0  0  0  0  0
   -2.7712    1.6000    0.0000 O   0  0  0  0  0  0  0  0  0  0  0  0
   -4.1569    2.4000    0.0000 H   0  0  0  0  0  0  0  0  0  0  0  0
  1  2  1  0  0  0  0
  1  3  1  0  0  0  0
  1  4  1  0  0  0  0
  1  5  1  0  0  0  0
  5  6  1  0  0  0  0
  5  7  1  0  0  0  0
  7  8  1  0  0  0  0
  7  9  1  0  0  0  0
  7 10  1  0  0  0  0
  5 11  1  0  0  0  0
 11 12  1  0  0  0  0
 12 13  1  0  0  0  0
 12 14  2  0  0  0  0
 14 15  1  0  0  0  0
 14 16  1  0  0  0  0
 16 17  1  0  0  0  0
 16 18  2  0  0  0  0
 18 19  1  0  0  0  0
 19 20  1  0  0  0  0
 19 21  1  0  0  0  0
 21 22  1  0  0  0  0
 21 23  1  0  0  0  0
 21 24  1  0  0  0  0
 19 25  1  0  0  0  0
 25 26  1  0  0  0  0
 25 27  1  0  0  0  0
 25 28  1  0  0  0  0
 18 29  1  0  0  0  0
 29 11  2  0  0  0  0
 29 30  1  0  0  0  0
 30 31  1  0  0  0  0
M  END
> <ChemID>
201486

> <source_casrn>
2078-54-8

> <CAS>
2078-54-8

> <SMILES>
CC(C)c1cccc(C(C)C)c1O

> <NAME>


> <preferred_name>
Propofol

> <iupac>
2,6-di(propan-2-yl)phenol

> <MPID>
101311

> <dsstox_substance_id>
DTXSID6023523

> <Canonical_QSARr>
CC(C)c1cccc(C(C)C)c1O

> <InChI_Code_QSARr>
InChI=1S/C12H18O/c1-8(2)10-6-5-7-11(9(3)4)12(10)13/h5-9,13H,1-4H3

> <InChI Key_QSARr>
OLBCVFGFOZPWHH-UHFFFAOYSA-N

> <Salt_Solvent>


> <Ready_Biodeg>
0.0

$$$$
201490
  -INDIGO-08031722522D

 28 27  0  0  0  0  0  0  0  0999 V2000
    2.4000   -2.9856    0.0000 C   0  0  0  0  0  0  0  0  0  0  0  0
    2.4000   -4.5856    0.0000 H   0  0  0  0  0  0  0  0  0  0  0  0
    1.1743   -4.0141    0.0000 H   0  0  0  0  0  0  0  0  0  0  0  0
    3.6257   -4.0141    0.0000 H   0  0  0  0  0  0  0  0  0  0  0  0
    2.4000   -1.3857    0.0000 C   0  0  0  0  0  0  0  0  0  0  0  0
    2.4000    0.2143    0.0000 H   0  0  0  0  0  0  0  0  0  0  0  0
    3.9999   -1.3857    0.0000 C   0  0  0  0  0  0  0  0  0  0  0  0
    4.2089   -2.9720    0.0000 H   0  0  0  0  0  0  0  0  0  0  0  0
    5.2694   -2.3597    0.0000 H   0  0  0  0  0  0  0  0  0  0  0  0
    4.8000    0.0000    0.0000 C   0  0  0  0  0  0  0  0  0  0  0  0
    6.4000    0.0000    0.0000 H   0  0  0  0  0  0  0  0  0  0  0  0
    3.9999    1.3856    0.0000 O   0  0  0  0  0  0  0  0  0  0  0  0
    0.8000   -1.3857    0.0000 C   0  0  0  0  0  0  0  0  0  0  0  0
    0.5912   -2.9720    0.0000 H   0  0  0  0  0  0  0  0  0  0  0  0
   -0.4693   -2.3597    0.0000 H   0  0  0  0  0  0  0  0  0  0  0  0
    0.0000    0.0000    0.0000 C   0  0  0  0  0  0  0  0  0  0  0  0
   -1.0284    1.2257    0.0000 C   0  0  0  0  0  0  0  0  0  0  0  0
   -2.0569    2.4514    0.0000 H   0  0  0  0  0  0  0  0  0  0  0  0
   -2.6042    0.9479    0.0000 H   0  0  0  0  0  0  0  0  0  0  0  0
   -0.4812    2.7292    0.0000 H   0  0  0  0  0  0  0  0  0  0  0  0
    1.3856    0.8000    0.0000 C   0  0  0  0  0  0  0  0  0  0  0  0
    2.7712    1.5999    0.0000 H   0  0  0  0  0  0  0  0  0  0  0  0
    1.3856    2.4000    0.0000 H   0  0  0  0  0  0  0  0  0  0  0  0
    0.0000    1.5999    0.0000 H   0  0  0  0  0  0  0  0  0  0  0  0
   -1.3857   -0.8000    0.0000 C   0  0  0  0  0  0  0  0  0  0  0  0
   -2.7713   -1.6000    0.0000 H   0  0  0  0  0  0  0  0  0  0  0  0
   -1.6635   -2.3757    0.0000 H   0  0  0  0  0  0  0  0  0  0  0  0
   -2.7713    0.0000    0.0000 H   0  0  0  0  0  0  0  0  0  0  0  0
  1  2  1  0  0  0  0
  1  3  1  0  0  0  0
  1  4  1  0  0  0  0
  1  5  1  0  0  0  0
  5  6  1  0  0  0  0
  5  7  1  0  0  0  0
  7  8  1  0  0  0  0
  7  9  1  0  0  0  0
  7 10  1  0  0  0  0
 10 11  1  0  0  0  0
 10 12  2  0  0  0  0
  5 13  1  0  0  0  0
 13 14  1  0  0  0  0
 13 15  1  0  0  0  0
 13 16  1  0  0  0  0
 16 17  1  0  0  0  0
 17 18  1  0  0  0  0
 17 19  1  0  0  0  0
 17 20  1  0  0  0  0
 16 21  1  0  0  0  0
 21 22  1  0  0  0  0
 21 23  1  0  0  0  0
 21 24  1  0  0  0  0
 16 25  1  0  0  0  0
 25 26  1  0  0  0  0
 25 27  1  0  0  0  0
 25 28  1  0  0  0  0
M  END
> <ChemID>
201490

> <source_casrn>
5435-64-3

> <CAS>
5435-64-3

> <SMILES>
CC(CC=O)CC(C)(C)C

> <NAME>


> <preferred_name>
3,5,5-Trimethylhexanal

> <iupac>
3,5,5-trimethylhexanal

> <MPID>
101314

> <dsstox_substance_id>
DTXSID6047107

> <Canonical_QSARr>
CC(CC=O)CC(C)(C)C

> <InChI_Code_QSARr>
InChI=1S/C9H18O/c1-8(5-6-10)7-9(2,3)4/h6,8H,5,7H2,1-4H3

> <InChI Key_QSARr>
WTPYRCJDOZVZON-UHFFFAOYSA-N

> <Salt_Solvent>


> <Ready_Biodeg>
0.0

$$$$
201494
  -INDIGO-08031722522D

 20 19  0  0  0  0  0  0  0  0999 V2000
    0.8000   -1.3856    0.0000 C   0  0  0  0  0  0  0  0  0  0  0  0
    1.6000   -2.7713    0.0000 H   0  0  0  0  0  0  0  0  0  0  0  0
    2.3757   -1.6635    0.0000 H   0  0  0  0  0  0  0  0  0  0  0  0
   -0.0000   -2.7713    0.0000 H   0  0  0  0  0  0  0  0  0  0  0  0
   -0.0000   -0.0000    0.0000 C   0  0  0  0  0  0  0  0  0  0  0  0
    1.3857    0.8000    0.0000 C   0  0  0  0  0  0  0  0  0  0  0  0
    2.3597   -0.4694    0.0000 H   0  0  0  0  0  0  0  0  0  0  0  0
    2.9720    0.5911    0.0000 H   0  0  0  0  0  0  0  0  0  0  0  0
    1.6635    2.3757    0.0000 O   0  0  0  0  0  0  0  0  0  0  0  0
    3.1670    2.9229    0.0000 H   0  0  0  0  0  0  0  0  0  0  0  0
   -0.8000    1.3857    0.0000 C   0  0  0  0  0  0  0  0  0  0  0  0
    0.4694    2.3596    0.0000 H   0  0  0  0  0  0  0  0  0  0  0  0
   -0.5911    2.9720    0.0000 H   0  0  0  0  0  0  0  0  0  0  0  0
   -2.3757    1.6634    0.0000 O   0  0  0  0  0  0  0  0  0  0  0  0
   -2.9230    3.1670    0.0000 H   0  0  0  0  0  0  0  0  0  0  0  0
   -1.3857   -0.8000    0.0000 C   0  0  0  0  0  0  0  0  0  0  0  0
   -2.3597    0.4694    0.0000 H   0  0  0  0  0  0  0  0  0  0  0  0
   -2.9720   -0.5911    0.0000 H   0  0  0  0  0  0  0  0  0  0  0  0
   -1.3857   -2.4000    0.0000 O   0  0  0  0  0  0  0  0  0  0  0  0
   -2.7713   -3.2000    0.0000 H   0  0  0  0  0  0  0  0  0  0  0  0
  1  2  1  0  0  0  0
  1  3  1  0  0  0  0
  1  4  1  0  0  0  0
  1  5  1  0  0  0  0
  5  6  1  0  0  0  0
  6  7  1  0  0  0  0
  6  8  1  0  0  0  0
  6  9  1  0  0  0  0
  9 10  1  0  0  0  0
  5 11  1  0  0  0  0
 11 12  1  0  0  0  0
 11 13  1  0  0  0  0
 11 14  1  0  0  0  0
 14 15  1  0  0  0  0
  5 16  1  0  0  0  0
 16 17  1  0  0  0  0
 16 18  1  0  0  0  0
 16 19  1  0  0  0  0
 19 20  1  0  0  0  0
M  END
> <ChemID>
201494

> <source_casrn>
77-85-0

> <CAS>
77-85-0

> <SMILES>
CC(CO)(CO)CO

> <NAME>


> <preferred_name>
2-(Hydroxymethyl)-2-methyl-1,3-propanediol

> <iupac>
2-(hydroxymethyl)-2-methylpropane-1,3-diol

> <MPID>
101317

> <dsstox_substance_id>
DTXSID2026444

> <Canonical_QSARr>
CC(CO)(CO)CO

> <InChI_Code_QSARr>
InChI=1S/C5H12O3/c1-5(2-6,3-7)4-8/h6-8H,2-4H2,1H3

> <InChI Key_QSARr>
QXJQHYBHAIHNGG-UHFFFAOYSA-N

> <Salt_Solvent>


> <Ready_Biodeg>
0.0

$$$$
201498
  -INDIGO-08031722522D

  9  8  0  0  0  0  0  0  0  0999 V2000
   -0.0000    0.0000    0.0000 C   0  0  0  0  0  0  0  0  0  0  0  0
    1.3856    0.8000    0.0000 H   0  0  0  0  0  0  0  0  0  0  0  0
   -0.0000    1.6000    0.0000 H   0  0  0  0  0  0  0  0  0  0  0  0
    1.3856   -0.8000    0.0000 H   0  0  0  0  0  0  0  0  0  0  0  0
   -1.3856   -0.8000    0.0000 C   0  0  0  0  0  0  0  0  0  0  0  0
   -2.7713    0.0000    0.0000 N   0  0  0  0  0  0  0  0  0  0  0  0
   -4.1569   -0.8000    0.0000 H   0  0  0  0  0  0  0  0  0  0  0  0
   -2.7713    1.6000    0.0000 H   0  0  0  0  0  0  0  0  0  0  0  0
   -1.3856   -2.4000    0.0000 S   0  0  0  0  0  0  0  0  0  0  0  0
  1  2  1  0  0  0  0
  1  3  1  0  0  0  0
  1  4  1  0  0  0  0
  1  5  1  0  0  0  0
  5  6  1  0  0  0  0
  6  7  1  0  0  0  0
  6  8  1  0  0  0  0
  5  9  2  0  0  0  0
M  END
> <ChemID>
201498

> <source_casrn>
62-55-5

> <CAS>
62-55-5

> <SMILES>
CC(N)=S

> <NAME>


> <preferred_name>
Thioacetamide

> <iupac>
ethanethioamide

> <MPID>
101318

> <dsstox_substance_id>
DTXSID9021340

> <Canonical_QSARr>
CC(N)=S

> <InChI_Code_QSARr>
InChI=1S/C2H5NS/c1-2(3)4/h1H3,(H2,3,4)

> <InChI Key_QSARr>
YUKQRDCYNOVPGJ-UHFFFAOYSA-N

> <Salt_Solvent>


> <Ready_Biodeg>
0.0

$$$$
201502
  -INDIGO-08031722522D

 24 23  0  0  0  0  0  0  0  0999 V2000
    1.3856   -0.8000    0.0000 C   0  0  0  0  0  0  0  0  0  0  0  0
    2.7713   -1.6000    0.0000 H   0  0  0  0  0  0  0  0  0  0  0  0
    2.7713    0.0000    0.0000 H   0  0  0  0  0  0  0  0  0  0  0  0
    1.3856   -2.4000    0.0000 H   0  0  0  0  0  0  0  0  0  0  0  0
   -0.0000    0.0000    0.0000 C   0  0  0  0  0  0  0  0  0  0  0  0
   -0.7999   -1.3856    0.0000 H   0  0  0  0  0  0  0  0  0  0  0  0
    0.8000    1.3856    0.0000 O   0  0  0  0  0  0  0  0  0  0  0  0
    2.4000    1.3856    0.0000 H   0  0  0  0  0  0  0  0  0  0  0  0
   -1.3857    0.8000    0.0000 C   0  0  0  0  0  0  0  0  0  0  0  0
   -0.7734    2.2782    0.0000 H   0  0  0  0  0  0  0  0  0  0  0  0
   -1.9979    2.2782    0.0000 H   0  0  0  0  0  0  0  0  0  0  0  0
   -2.7712    0.0000    0.0000 N   0  0  0  0  0  0  0  0  0  0  0  0
   -2.7712   -1.6000    0.0000 H   0  0  0  0  0  0  0  0  0  0  0  0
   -4.1569    0.8000    0.0000 C   0  0  0  0  0  0  0  0  0  0  0  0
   -3.5447    2.2782    0.0000 H   0  0  0  0  0  0  0  0  0  0  0  0
   -4.7692    2.2782    0.0000 H   0  0  0  0  0  0  0  0  0  0  0  0
   -5.5425    0.0000    0.0000 C   0  0  0  0  0  0  0  0  0  0  0  0
   -4.7426   -1.3856    0.0000 H   0  0  0  0  0  0  0  0  0  0  0  0
   -6.9282   -0.8000    0.0000 C   0  0  0  0  0  0  0  0  0  0  0  0
   -8.3138   -1.6000    0.0000 H   0  0  0  0  0  0  0  0  0  0  0  0
   -8.3138    0.0000    0.0000 H   0  0  0  0  0  0  0  0  0  0  0  0
   -6.9282   -2.4000    0.0000 H   0  0  0  0  0  0  0  0  0  0  0  0
   -6.3426    1.3856    0.0000 O   0  0  0  0  0  0  0  0  0  0  0  0
   -7.9426    1.3856    0.0000 H   0  0  0  0  0  0  0  0  0  0  0  0
  1  2  1  0  0  0  0
  1  3  1  0  0  0  0
  1  4  1  0  0  0  0
  1  5  1  0  0  0  0
  5  6  1  0  0  0  0
  5  7  1  0  0  0  0
  7  8  1  0  0  0  0
  5  9  1  0  0  0  0
  9 10  1  0  0  0  0
  9 11  1  0  0  0  0
  9 12  1  0  0  0  0
 12 13  1  0  0  0  0
 12 14  1  0  0  0  0
 14 15  1  0  0  0  0
 14 16  1  0  0  0  0
 14 17  1  0  0  0  0
 17 18  1  0  0  0  0
 17 19  1  0  0  0  0
 19 20  1  0  0  0  0
 19 21  1  0  0  0  0
 19 22  1  0  0  0  0
 17 23  1  0  0  0  0
 23 24  1  0  0  0  0
M  END
> <ChemID>
201502

> <source_casrn>
110-97-4

> <CAS>
110-97-4

> <SMILES>
CC(O)CNCC(C)O

> <NAME>


> <preferred_name>
Diisopropanolamine

> <iupac>
1,1'-iminodipropan-2-ol

> <MPID>
101320

> <dsstox_substance_id>
DTXSID8020179

> <Canonical_QSARr>
CC(O)CNCC(C)O

> <InChI_Code_QSARr>
InChI=1S/C6H15NO2/c1-5(8)3-7-4-6(2)9/h5-9H,3-4H2,1-2H3

> <InChI Key_QSARr>
LVTYICIALWPMFW-UHFFFAOYSA-N

> <Salt_Solvent>


> <Ready_Biodeg>
1.0

$$$$
201506
  -INDIGO-08031722522D

 27 28  0  0  0  0  0  0  0  0999 V2000
    0.7633    1.4062    0.0000 C   0  0  0  0  0  0  0  0  0  0  0  0
    1.5266    2.8123    0.0000 H   0  0  0  0  0  0  0  0  0  0  0  0
    2.3628    1.4483    0.0000 H   0  0  0  0  0  0  0  0  0  0  0  0
   -0.0728    2.7704    0.0000 H   0  0  0  0  0  0  0  0  0  0  0  0
    0.0000    0.0000    0.0000 C   0  0  0  0  0  0  0  0  0  0  0  0
    0.9823   -1.2630    0.0000 C   0  0  0  0  0  0  0  0  0  0  0  0
    1.9644   -2.5261    0.0000 H   0  0  0  0  0  0  0  0  0  0  0  0
    2.5672   -1.0439    0.0000 H   0  0  0  0  0  0  0  0  0  0  0  0
    1.5849    0.2192    0.0000 H   0  0  0  0  0  0  0  0  0  0  0  0
   -1.4748   -0.3742    0.0000 C   0  0  0  0  0  0  0  0  0  0  0  0
   -0.5225   -1.6600    0.0000 H   0  0  0  0  0  0  0  0  0  0  0  0
   -2.2726    1.1364    0.0000 C   0  0  0  0  0  0  0  0  0  0  0  0
   -0.6986    1.4241    0.0000 H   0  0  0  0  0  0  0  0  0  0  0  0
   -2.0744    2.7241    0.0000 H   0  0  0  0  0  0  0  0  0  0  0  0
   -3.6450    1.7646    0.0000 C   0  0  0  0  0  0  0  0  0  0  0  0
   -3.3765    3.3418    0.0000 H   0  0  0  0  0  0  0  0  0  0  0  0
   -4.5328    2.2464    0.0000 H   0  0  0  0  0  0  0  0  0  0  0  0
   -3.0924    0.2630    0.0000 C   0  0  0  0  0  0  0  0  0  0  0  0
   -4.6448    0.6504    0.0000 C   0  0  0  0  0  0  0  0  0  0  0  0
   -6.1971    1.0377    0.0000 H   0  0  0  0  0  0  0  0  0  0  0  0
   -5.7564   -0.5004    0.0000 H   0  0  0  0  0  0  0  0  0  0  0  0
   -5.1731    1.5114    0.0000 H   0  0  0  0  0  0  0  0  0  0  0  0
   -3.7788   -1.0158    0.0000 C   0  0  0  0  0  0  0  0  0  0  0  0
   -5.3039   -1.4997    0.0000 O   0  0  0  0  0  0  0  0  0  0  0  0
   -2.3083   -1.7511    0.0000 C   0  0  0  0  0  0  0  0  0  0  0  0
   -3.0620   -3.1624    0.0000 H   0  0  0  0  0  0  0  0  0  0  0  0
   -0.9177   -2.5425    0.0000 H   0  0  0  0  0  0  0  0  0  0  0  0
  1  2  1  0  0  0  0
  1  3  1  0  0  0  0
  1  4  1  0  0  0  0
  1  5  1  0  0  0  0
  5  6  1  0  0  0  0
  6  7  1  0  0  0  0
  6  8  1  0  0  0  0
  6  9  1  0  0  0  0
  5 10  1  0  0  0  0
 10 11  1  0  0  0  0
 10 12  1  0  0  0  0
 12 13  1  0  0  0  0
 12 14  1  0  0  0  0
 12 15  1  0  0  0  0
 15 16  1  0  0  0  0
 15 17  1  0  0  0  0
 15 18  1  0  0  0  0
 18  5  1  0  0  0  0
 18 19  1  0  0  0  0
 19 20  1  0  0  0  0
 19 21  1  0  0  0  0
 19 22  1  0  0  0  0
 18 23  1  0  0  0  0
 23 24  2  0  0  0  0
 23 25  1  0  0  0  0
 25 10  1  0  0  0  0
 25 26  1  0  0  0  0
 25 27  1  0  0  0  0
M  END
> <ChemID>
201506

> <source_casrn>
76-22-2

> <CAS>
76-22-2

> <SMILES>
CC1(C)C2CCC1(C)C(=O)C2

> <NAME>


> <preferred_name>
Camphor

> <iupac>
C10H16O

> <MPID>
101323

> <dsstox_substance_id>
DTXSID5030955

> <Canonical_QSARr>
CC1(C)C2CC(=O)C1(C)CC2

> <InChI_Code_QSARr>
InChI=1S/C10H16O/c1-9(2)7-4-5-10(9,3)8(11)6-7/h7H,4-6H2,1-3H3

> <InChI Key_QSARr>
DSSYKIVIOFKYAU-UHFFFAOYSA-N

> <Salt_Solvent>


> <Ready_Biodeg>
1.0

$$$$
201510
  -INDIGO-08031722522D

 28 28  0  0  0  0  0  0  0  0999 V2000
    1.5757   -0.2778    0.0000 C   0  0  0  0  0  0  0  0  0  0  0  0
    3.1514   -0.5557    0.0000 H   0  0  0  0  0  0  0  0  0  0  0  0
    2.6042    0.9478    0.0000 H   0  0  0  0  0  0  0  0  0  0  0  0
    2.6042   -1.5035    0.0000 H   0  0  0  0  0  0  0  0  0  0  0  0
    0.0000    0.0000    0.0000 C   0  0  0  0  0  0  0  0  0  0  0  0
    0.5472    1.5035    0.0000 C   0  0  0  0  0  0  0  0  0  0  0  0
    1.0944    3.0070    0.0000 H   0  0  0  0  0  0  0  0  0  0  0  0
    2.1229    1.7814    0.0000 H   0  0  0  0  0  0  0  0  0  0  0  0
   -0.4813    2.7291    0.0000 H   0  0  0  0  0  0  0  0  0  0  0  0
    0.0000   -1.6000    0.0000 C   0  0  0  0  0  0  0  0  0  0  0  0
    1.5757   -1.3222    0.0000 H   0  0  0  0  0  0  0  0  0  0  0  0
    0.5472   -3.1035    0.0000 H   0  0  0  0  0  0  0  0  0  0  0  0
   -1.3856   -2.4000    0.0000 C   0  0  0  0  0  0  0  0  0  0  0  0
   -1.3856   -4.0000    0.0000 O   0  0  0  0  0  0  0  0  0  0  0  0
   -2.7713   -1.6000    0.0000 C   0  0  0  0  0  0  0  0  0  0  0  0
   -3.3185   -3.1035    0.0000 H   0  0  0  0  0  0  0  0  0  0  0  0
   -4.3470   -1.3222    0.0000 H   0  0  0  0  0  0  0  0  0  0  0  0
   -2.7713    0.0000    0.0000 C   0  0  0  0  0  0  0  0  0  0  0  0
   -4.3470   -0.2778    0.0000 C   0  0  0  0  0  0  0  0  0  0  0  0
   -5.9227   -0.5557    0.0000 H   0  0  0  0  0  0  0  0  0  0  0  0
   -5.3755    0.9478    0.0000 H   0  0  0  0  0  0  0  0  0  0  0  0
   -5.3755   -1.5035    0.0000 H   0  0  0  0  0  0  0  0  0  0  0  0
   -3.3185    1.5035    0.0000 C   0  0  0  0  0  0  0  0  0  0  0  0
   -3.8657    3.0070    0.0000 H   0  0  0  0  0  0  0  0  0  0  0  0
   -4.8942    1.7814    0.0000 H   0  0  0  0  0  0  0  0  0  0  0  0
   -2.2900    2.7291    0.0000 H   0  0  0  0  0  0  0  0  0  0  0  0
   -1.3856    0.8000    0.0000 N   0  0  0  0  0  0  0  0  0  0  0  0
   -1.3856    2.4000    0.0000 H   0  0  0  0  0  0  0  0  0  0  0  0
  1  2  1  0  0  0  0
  1  3  1  0  0  0  0
  1  4  1  0  0  0  0
  1  5  1  0  0  0  0
  5  6  1  0  0  0  0
  6  7  1  0  0  0  0
  6  8  1  0  0  0  0
  6  9  1  0  0  0  0
  5 10  1  0  0  0  0
 10 11  1  0  0  0  0
 10 12  1  0  0  0  0
 10 13  1  0  0  0  0
 13 14  2  0  0  0  0
 13 15  1  0  0  0  0
 15 16  1  0  0  0  0
 15 17  1  0  0  0  0
 15 18  1  0  0  0  0
 18 19  1  0  0  0  0
 19 20  1  0  0  0  0
 19 21  1  0  0  0  0
 19 22  1  0  0  0  0
 18 23  1  0  0  0  0
 23 24  1  0  0  0  0
 23 25  1  0  0  0  0
 23 26  1  0  0  0  0
 18 27  1  0  0  0  0
 27  5  1  0  0  0  0
 27 28  1  0  0  0  0
M  END
> <ChemID>
201510

> <source_casrn>
826-36-8

> <CAS>
826-36-8

> <SMILES>
CC1(C)CC(=O)CC(C)(C)N1

> <NAME>


> <preferred_name>
2,2,6,6-Tetramethyl-4-piperidone

> <iupac>
2,2,6,6-tetramethylpiperidin-4-one

> <MPID>
101325

> <dsstox_substance_id>
DTXSID4041527

> <Canonical_QSARr>
CC1(C)CC(=O)CC(C)(C)N1

> <InChI_Code_QSARr>
InChI=1S/C9H17NO/c1-8(2)5-7(11)6-9(3,4)10-8/h10H,5-6H2,1-4H3

> <InChI Key_QSARr>
JWUXJYZVKZKLTJ-UHFFFAOYSA-N

> <Salt_Solvent>


> <Ready_Biodeg>
0.0

$$$$
201514
  -INDIGO-08031722522D

 13 13  0  0  0  0  0  0  0  0999 V2000
    0.5472    1.5035    0.0000 C   0  0  0  0  0  0  0  0  0  0  0  0
    1.0945    3.0070    0.0000 H   0  0  0  0  0  0  0  0  0  0  0  0
   -0.4812    2.7292    0.0000 H   0  0  0  0  0  0  0  0  0  0  0  0
    2.1229    1.7813    0.0000 H   0  0  0  0  0  0  0  0  0  0  0  0
   -0.0000    0.0000    0.0000 C   0  0  0  0  0  0  0  0  0  0  0  0
   -1.5757    0.2778    0.0000 C   0  0  0  0  0  0  0  0  0  0  0  0
   -3.1514    0.5557    0.0000 H   0  0  0  0  0  0  0  0  0  0  0  0
   -2.1230    1.7813    0.0000 H   0  0  0  0  0  0  0  0  0  0  0  0
   -2.6041   -0.9479    0.0000 Cl  0  0  0  0  0  0  0  0  0  0  0  0
    1.3857   -0.8000    0.0000 C   0  0  0  0  0  0  0  0  0  0  0  0
    2.4141    0.4257    0.0000 H   0  0  0  0  0  0  0  0  0  0  0  0
    2.4141   -2.0257    0.0000 H   0  0  0  0  0  0  0  0  0  0  0  0
   -0.0000   -1.6000    0.0000 O   0  0  0  0  0  0  0  0  0  0  0  0
  1  2  1  0  0  0  0
  1  3  1  0  0  0  0
  1  4  1  0  0  0  0
  1  5  1  0  0  0  0
  5  6  1  0  0  0  0
  6  7  1  0  0  0  0
  6  8  1  0  0  0  0
  6  9  1  0  0  0  0
  5 10  1  0  0  0  0
 10 11  1  0  0  0  0
 10 12  1  0  0  0  0
 10 13  1  0  0  0  0
 13  5  1  0  0  0  0
M  END
> <ChemID>
201514

> <source_casrn>
598-09-4

> <CAS>
NOCAS_870659

> <SMILES>
CC1(CCl)CO1

> <NAME>


> <preferred_name>


> <iupac>


> <MPID>
101328

> <dsstox_substance_id>
DTXSID50870659

> <Canonical_QSARr>
CC1(CCl)CO1

> <InChI_Code_QSARr>
InChI=1S/C4H7ClO/c1-4(2-5)3-6-4/h2-3H2,1H3

> <InChI Key_QSARr>
VVHFXJOCUKBZFS-UHFFFAOYSA-N

> <Salt_Solvent>


> <Ready_Biodeg>
0.0

$$$$
201518
  -INDIGO-08031722522D

 28 29  0  0  0  0  0  0  0  0999 V2000
    3.2000    2.7713    0.0000 C   0  0  0  0  0  0  0  0  0  0  0  0
    4.0000    4.1569    0.0000 H   0  0  0  0  0  0  0  0  0  0  0  0
    2.4000    4.1569    0.0000 H   0  0  0  0  0  0  0  0  0  0  0  0
    4.7999    2.7713    0.0000 H   0  0  0  0  0  0  0  0  0  0  0  0
    2.4000    1.3856    0.0000 C   0  0  0  0  0  0  0  0  0  0  0  0
    0.7999    1.3856    0.0000 C   0  0  0  0  0  0  0  0  0  0  0  0
   -0.0000    2.7713    0.0000 H   0  0  0  0  0  0  0  0  0  0  0  0
   -0.0000    0.0001    0.0000 C   0  0  0  0  0  0  0  0  0  0  0  0
   -1.2256    1.0284    0.0000 C   0  0  0  0  0  0  0  0  0  0  0  0
   -2.4513    2.0569    0.0000 H   0  0  0  0  0  0  0  0  0  0  0  0
   -2.7292    0.4812    0.0000 H   0  0  0  0  0  0  0  0  0  0  0  0
   -0.9479    2.6041    0.0000 H   0  0  0  0  0  0  0  0  0  0  0  0
   -1.2256   -1.0284    0.0000 C   0  0  0  0  0  0  0  0  0  0  0  0
   -2.4513   -2.0569    0.0000 H   0  0  0  0  0  0  0  0  0  0  0  0
   -2.7292   -0.4812    0.0000 H   0  0  0  0  0  0  0  0  0  0  0  0
   -0.9479   -2.6041    0.0000 H   0  0  0  0  0  0  0  0  0  0  0  0
    0.7999   -1.3856    0.0000 N   0  0  0  0  0  0  0  0  0  0  0  0
   -0.0000   -2.7713    0.0000 H   0  0  0  0  0  0  0  0  0  0  0  0
    2.4000   -1.3856    0.0000 C   0  0  0  0  0  0  0  0  0  0  0  0
    3.2000   -2.7712    0.0000 C   0  0  0  0  0  0  0  0  0  0  0  0
    2.4000   -4.1569    0.0000 H   0  0  0  0  0  0  0  0  0  0  0  0
    4.7999   -2.7712    0.0000 C   0  0  0  0  0  0  0  0  0  0  0  0
    5.6001   -4.1569    0.0000 H   0  0  0  0  0  0  0  0  0  0  0  0
    5.6001   -1.3856    0.0000 C   0  0  0  0  0  0  0  0  0  0  0  0
    7.2000   -1.3856    0.0000 H   0  0  0  0  0  0  0  0  0  0  0  0
    4.7999   -0.0001    0.0000 C   0  0  0  0  0  0  0  0  0  0  0  0
    5.6001    1.3856    0.0000 H   0  0  0  0  0  0  0  0  0  0  0  0
    3.2000    0.0001    0.0000 C   0  0  0  0  0  0  0  0  0  0  0  0
  1  2  1  0  0  0  0
  1  3  1  0  0  0  0
  1  4  1  0  0  0  0
  1  5  1  0  0  0  0
  5  6  2  0  0  0  0
  6  7  1  0  0  0  0
  6  8  1  0  0  0  0
  8  9  1  0  0  0  0
  9 10  1  0  0  0  0
  9 11  1  0  0  0  0
  9 12  1  0  0  0  0
  8 13  1  0  0  0  0
 13 14  1  0  0  0  0
 13 15  1  0  0  0  0
 13 16  1  0  0  0  0
  8 17  1  0  0  0  0
 17 18  1  0  0  0  0
 17 19  1  0  0  0  0
 19 20  1  0  0  0  0
 20 21  1  0  0  0  0
 20 22  2  0  0  0  0
 22 23  1  0  0  0  0
 22 24  1  0  0  0  0
 24 25  1  0  0  0  0
 24 26  2  0  0  0  0
 26 27  1  0  0  0  0
 26 28  1  0  0  0  0
 28  5  1  0  0  0  0
 28 19  2  0  0  0  0
M  END
> <ChemID>
201518

> <source_casrn>
26780-96-1

> <CAS>
147-47-7

> <SMILES>
CC1=CC(C)(C)Nc2ccccc12

> <NAME>


> <preferred_name>


> <iupac>


> <MPID>
101330

> <dsstox_substance_id>
DTXSID0025070

> <Canonical_QSARr>
CC1=CC(C)(C)Nc2ccccc12

> <InChI_Code_QSARr>
InChI=1S/C12H15N/c1-9-8-12(2,3)13-11-7-5-4-6-10(9)11/h4-8,13H,1-3H3

> <InChI Key_QSARr>
ZNRLMGFXSPUZNR-UHFFFAOYSA-N

> <Salt_Solvent>


> <Ready_Biodeg>
0.0

$$$$
201522
  -INDIGO-08031722522D

 27 28  0  0  0  0  0  0  0  0999 V2000
    1.2945    2.5405    0.0000 C   0  0  0  0  0  0  0  0  0  0  0  0
    2.5888    3.4809    0.0000 H   0  0  0  0  0  0  0  0  0  0  0  0
    1.1272    4.1317    0.0000 H   0  0  0  0  0  0  0  0  0  0  0  0
    2.7561    1.8896    0.0000 H   0  0  0  0  0  0  0  0  0  0  0  0
   -0.0001    1.6000    0.0000 C   0  0  0  0  0  0  0  0  0  0  0  0
   -1.5218    2.0944    0.0000 N   0  0  0  0  0  0  0  0  0  0  0  0
   -2.4621    0.8000    0.0000 N   0  0  0  0  0  0  0  0  0  0  0  0
   -4.0621    0.8000    0.0000 C   0  0  0  0  0  0  0  0  0  0  0  0
   -4.8621    2.1856    0.0000 C   0  0  0  0  0  0  0  0  0  0  0  0
   -4.0621    3.5713    0.0000 H   0  0  0  0  0  0  0  0  0  0  0  0
   -6.4621    2.1856    0.0000 C   0  0  0  0  0  0  0  0  0  0  0  0
   -7.2621    3.5713    0.0000 Cl  0  0  0  0  0  0  0  0  0  0  0  0
   -7.2621    0.8000    0.0000 C   0  0  0  0  0  0  0  0  0  0  0  0
   -8.8621    0.8000    0.0000 S   0  0  0  0  0  0  0  0  0  0  0  0
  -10.4621    0.8000    0.0000 O   0  0  0  0  0  0  0  0  0  0  0  0
  -11.2621    2.1856    0.0000 H   0  0  0  0  0  0  0  0  0  0  0  0
   -8.8621    2.4000    0.0000 O   0  0  0  0  0  0  0  0  0  0  0  0
   -8.8621   -0.8000    0.0000 O   0  0  0  0  0  0  0  0  0  0  0  0
   -6.4621   -0.5856    0.0000 C   0  0  0  0  0  0  0  0  0  0  0  0
   -7.2621   -1.9713    0.0000 H   0  0  0  0  0  0  0  0  0  0  0  0
   -4.8621   -0.5856    0.0000 C   0  0  0  0  0  0  0  0  0  0  0  0
   -4.0621   -1.9713    0.0000 Cl  0  0  0  0  0  0  0  0  0  0  0  0
   -1.5218   -0.4944    0.0000 C   0  0  0  0  0  0  0  0  0  0  0  0
   -2.0161   -2.0161    0.0000 O   0  0  0  0  0  0  0  0  0  0  0  0
   -0.0001    0.0000    0.0000 C   0  0  0  0  0  0  0  0  0  0  0  0
    0.3326   -1.5651    0.0000 H   0  0  0  0  0  0  0  0  0  0  0  0
    1.5912    0.1672    0.0000 H   0  0  0  0  0  0  0  0  0  0  0  0
  1  2  1  0  0  0  0
  1  3  1  0  0  0  0
  1  4  1  0  0  0  0
  1  5  1  0  0  0  0
  5  6  2  0  0  0  0
  6  7  1  0  0  0  0
  7  8  1  0  0  0  0
  8  9  1  0  0  0  0
  9 10  1  0  0  0  0
  9 11  2  0  0  0  0
 11 12  1  0  0  0  0
 11 13  1  0  0  0  0
 13 14  1  0  0  0  0
 14 15  1  0  0  0  0
 15 16  1  0  0  0  0
 14 17  2  0  0  0  0
 14 18  2  0  0  0  0
 13 19  2  0  0  0  0
 19 20  1  0  0  0  0
 19 21  1  0  0  0  0
 21  8  2  0  0  0  0
 21 22  1  0  0  0  0
  7 23  1  0  0  0  0
 23 24  2  0  0  0  0
 23 25  1  0  0  0  0
 25  5  1  0  0  0  0
 25 26  1  0  0  0  0
 25 27  1  0  0  0  0
M  END
> <ChemID>
201522

> <source_casrn>
84-57-1

> <CAS>
84-57-1

> <SMILES>
CC1=NN(C(=O)C1)c2cc(Cl)c(cc2Cl)[S](O)(=O)=O

> <NAME>


> <preferred_name>
Benzenesulfonic acid, 2,5-dichloro-4-(4,5-dihydro-3-methyl-5-oxo-1H-pyrazol-1-yl)-

> <iupac>
2,5-dichloro-4-(3-methyl-5-oxo-4H-pyrazol-1-yl)benzenesulfonic acid

> <MPID>
101334

> <dsstox_substance_id>
DTXSID8058906

> <Canonical_QSARr>
CC1CC(=O)N(N=1)c1cc(Cl)c(cc1Cl)S(O)(=O)=O

> <InChI_Code_QSARr>
InChI=1S/C10H8Cl2N2O4S/c1-5-2-10(15)14(13-5)8-3-7(12)9(4-6(8)11)19(16,17)18/h3-4H,2H2,1H3,(H,16,17,18)

> <InChI Key_QSARr>
KCEIVWKDBLAQKL-UHFFFAOYSA-N

> <Salt_Solvent>


> <Ready_Biodeg>
0.0

$$$$
201534
  -INDIGO-08031722522D

 13 13  0  0  0  0  0  0  0  0999 V2000
    1.2945   -0.9404    0.0000 C   0  0  0  0  0  0  0  0  0  0  0  0
    2.5888   -1.8809    0.0000 H   0  0  0  0  0  0  0  0  0  0  0  0
    2.7561   -0.2897    0.0000 H   0  0  0  0  0  0  0  0  0  0  0  0
    1.1272   -2.5317    0.0000 H   0  0  0  0  0  0  0  0  0  0  0  0
   -0.0000    0.0000    0.0000 C   0  0  0  0  0  0  0  0  0  0  0  0
    1.0706    1.1891    0.0000 H   0  0  0  0  0  0  0  0  0  0  0  0
   -1.0706    1.1891    0.0000 C   0  0  0  0  0  0  0  0  0  0  0  0
    0.2238    2.1295    0.0000 H   0  0  0  0  0  0  0  0  0  0  0  0
   -1.8706    2.5747    0.0000 H   0  0  0  0  0  0  0  0  0  0  0  0
   -2.5323    0.5383    0.0000 O   0  0  0  0  0  0  0  0  0  0  0  0
   -2.3650   -1.0530    0.0000 C   0  0  0  0  0  0  0  0  0  0  0  0
   -3.5541   -2.1236    0.0000 O   0  0  0  0  0  0  0  0  0  0  0  0
   -0.8000   -1.3857    0.0000 O   0  0  0  0  0  0  0  0  0  0  0  0
  1  2  1  0  0  0  0
  1  3  1  0  0  0  0
  1  4  1  0  0  0  0
  1  5  1  0  0  0  0
  5  6  1  0  0  0  0
  5  7  1  0  0  0  0
  7  8  1  0  0  0  0
  7  9  1  0  0  0  0
  7 10  1  0  0  0  0
 10 11  1  0  0  0  0
 11 12  2  0  0  0  0
 11 13  1  0  0  0  0
 13  5  1  0  0  0  0
M  END
> <ChemID>
201534

> <source_casrn>
108-32-7

> <CAS>
108-32-7

> <SMILES>
CC1COC(=O)O1

> <NAME>


> <preferred_name>
Propylene carbonate

> <iupac>
4-methyl-1,3-dioxolan-2-one

> <MPID>
101337

> <dsstox_substance_id>
DTXSID2026789

> <Canonical_QSARr>
CC1COC(=O)O1

> <InChI_Code_QSARr>
InChI=1S/C4H6O3/c1-3-2-6-4(5)7-3/h3H,2H2,1H3

> <InChI Key_QSARr>
RUOJZAUFBMNUDX-UHFFFAOYSA-N

> <Salt_Solvent>


> <Ready_Biodeg>
1.0

$$$$
201546
  -INDIGO-08031722522D

 20 20  0  0  0  0  0  0  0  0999 V2000
    1.6000   -0.0000    0.0000 C   0  0  0  0  0  0  0  0  0  0  0  0
    3.2000   -0.0000    0.0000 H   0  0  0  0  0  0  0  0  0  0  0  0
    2.4000   -1.3856    0.0000 H   0  0  0  0  0  0  0  0  0  0  0  0
    2.4000    1.3856    0.0000 H   0  0  0  0  0  0  0  0  0  0  0  0
   -0.0001   -0.0000    0.0000 C   0  0  0  0  0  0  0  0  0  0  0  0
   -0.2089   -1.5863    0.0000 H   0  0  0  0  0  0  0  0  0  0  0  0
   -1.2693   -0.9740    0.0000 H   0  0  0  0  0  0  0  0  0  0  0  0
   -0.8000    1.3856    0.0000 C   0  0  0  0  0  0  0  0  0  0  0  0
   -0.0001    2.7713    0.0000 O   0  0  0  0  0  0  0  0  0  0  0  0
   -2.4000    1.3856    0.0000 C   0  0  0  0  0  0  0  0  0  0  0  0
   -3.2000    2.7713    0.0000 C   0  0  0  0  0  0  0  0  0  0  0  0
   -2.4000    4.1569    0.0000 H   0  0  0  0  0  0  0  0  0  0  0  0
   -4.8001    2.7713    0.0000 C   0  0  0  0  0  0  0  0  0  0  0  0
   -5.6000    4.1569    0.0000 H   0  0  0  0  0  0  0  0  0  0  0  0
   -5.6000    1.3856    0.0000 C   0  0  0  0  0  0  0  0  0  0  0  0
   -7.2000    1.3856    0.0000 H   0  0  0  0  0  0  0  0  0  0  0  0
   -4.8001   -0.0000    0.0000 C   0  0  0  0  0  0  0  0  0  0  0  0
   -5.6000   -1.3856    0.0000 H   0  0  0  0  0  0  0  0  0  0  0  0
   -3.2000   -0.0000    0.0000 C   0  0  0  0  0  0  0  0  0  0  0  0
   -2.4000   -1.3856    0.0000 H   0  0  0  0  0  0  0  0  0  0  0  0
  1  2  1  0  0  0  0
  1  3  1  0  0  0  0
  1  4  1  0  0  0  0
  1  5  1  0  0  0  0
  5  6  1  0  0  0  0
  5  7  1  0  0  0  0
  5  8  1  0  0  0  0
  8  9  2  0  0  0  0
  8 10  1  0  0  0  0
 10 11  1  0  0  0  0
 11 12  1  0  0  0  0
 11 13  2  0  0  0  0
 13 14  1  0  0  0  0
 13 15  1  0  0  0  0
 15 16  1  0  0  0  0
 15 17  2  0  0  0  0
 17 18  1  0  0  0  0
 17 19  1  0  0  0  0
 19 10  2  0  0  0  0
 19 20  1  0  0  0  0
M  END
> <ChemID>
201546

> <source_casrn>
93-55-0

> <CAS>
93-55-0

> <SMILES>
CCC(=O)c1ccccc1

> <NAME>


> <preferred_name>
1-Phenylpropan-1-one

> <iupac>
1-phenylpropan-1-one

> <MPID>
101342

> <dsstox_substance_id>
DTXSID2044470

> <Canonical_QSARr>
CCC(=O)c1ccccc1

> <InChI_Code_QSARr>
InChI=1S/C9H10O/c1-2-9(10)8-6-4-3-5-7-8/h3-7H,2H2,1H3

> <InChI Key_QSARr>
KRIOVPPHQSLHCZ-UHFFFAOYSA-N

> <Salt_Solvent>


> <Ready_Biodeg>
1.0

$$$$
201554
  -INDIGO-08031722522D

 58 57  0  0  0  0  0  0  0  0999 V2000
    0.4812   -2.7292    0.0000 C   0  0  0  0  0  0  0  0  0  0  0  0
    1.5097   -3.9549    0.0000 H   0  0  0  0  0  0  0  0  0  0  0  0
   -0.0659   -4.2327    0.0000 H   0  0  0  0  0  0  0  0  0  0  0  0
    2.0568   -2.4513    0.0000 H   0  0  0  0  0  0  0  0  0  0  0  0
   -0.5473   -1.5034    0.0000 C   0  0  0  0  0  0  0  0  0  0  0  0
   -2.1092   -1.1572    0.0000 H   0  0  0  0  0  0  0  0  0  0  0  0
   -1.8967   -2.3632    0.0000 H   0  0  0  0  0  0  0  0  0  0  0  0
    0.0002    0.0000    0.0000 C   0  0  0  0  0  0  0  0  0  0  0  0
    1.3855   -0.8000    0.0000 H   0  0  0  0  0  0  0  0  0  0  0  0
    1.0283    1.2257    0.0000 C   0  0  0  0  0  0  0  0  0  0  0  0
    1.0984    2.8241    0.0000 H   0  0  0  0  0  0  0  0  0  0  0  0
   -0.0526    2.4054    0.0000 H   0  0  0  0  0  0  0  0  0  0  0  0
    2.6043    0.9479    0.0000 C   0  0  0  0  0  0  0  0  0  0  0  0
    4.1798    0.6700    0.0000 H   0  0  0  0  0  0  0  0  0  0  0  0
    3.6327    2.1736    0.0000 H   0  0  0  0  0  0  0  0  0  0  0  0
    3.1514   -0.5557    0.0000 H   0  0  0  0  0  0  0  0  0  0  0  0
   -1.3855    0.8000    0.0000 C   0  0  0  0  0  0  0  0  0  0  0  0
   -1.3855    2.4000    0.0000 O   0  0  0  0  0  0  0  0  0  0  0  0
   -2.7712    0.0000    0.0000 O   0  0  0  0  0  0  0  0  0  0  0  0
   -4.1569    0.8000    0.0000 C   0  0  0  0  0  0  0  0  0  0  0  0
   -3.5445    2.2781    0.0000 H   0  0  0  0  0  0  0  0  0  0  0  0
   -4.7693    2.2781    0.0000 H   0  0  0  0  0  0  0  0  0  0  0  0
   -5.5426    0.0000    0.0000 C   0  0  0  0  0  0  0  0  0  0  0  0
   -6.1550   -1.4783    0.0000 H   0  0  0  0  0  0  0  0  0  0  0  0
   -4.9301   -1.4783    0.0000 H   0  0  0  0  0  0  0  0  0  0  0  0
   -6.9282    0.8000    0.0000 O   0  0  0  0  0  0  0  0  0  0  0  0
   -8.3139    0.0000    0.0000 C   0  0  0  0  0  0  0  0  0  0  0  0
   -8.9259   -1.4783    0.0000 H   0  0  0  0  0  0  0  0  0  0  0  0
   -7.7015   -1.4783    0.0000 H   0  0  0  0  0  0  0  0  0  0  0  0
   -9.6996    0.8000    0.0000 C   0  0  0  0  0  0  0  0  0  0  0  0
   -9.0872    2.2781    0.0000 H   0  0  0  0  0  0  0  0  0  0  0  0
  -10.3116    2.2781    0.0000 H   0  0  0  0  0  0  0  0  0  0  0  0
  -11.0853    0.0000    0.0000 O   0  0  0  0  0  0  0  0  0  0  0  0
  -12.4706    0.8000    0.0000 C   0  0  0  0  0  0  0  0  0  0  0  0
  -11.8586    2.2781    0.0000 H   0  0  0  0  0  0  0  0  0  0  0  0
  -13.0830    2.2781    0.0000 H   0  0  0  0  0  0  0  0  0  0  0  0
  -13.8563    0.0000    0.0000 C   0  0  0  0  0  0  0  0  0  0  0  0
  -14.4687   -1.4783    0.0000 H   0  0  0  0  0  0  0  0  0  0  0  0
  -13.2443   -1.4783    0.0000 H   0  0  0  0  0  0  0  0  0  0  0  0
  -15.2420    0.8000    0.0000 O   0  0  0  0  0  0  0  0  0  0  0  0
  -16.6277    0.0000    0.0000 C   0  0  0  0  0  0  0  0  0  0  0  0
  -16.6277   -1.6000    0.0000 O   0  0  0  0  0  0  0  0  0  0  0  0
  -18.0134    0.8000    0.0000 C   0  0  0  0  0  0  0  0  0  0  0  0
  -16.9849    2.0257    0.0000 H   0  0  0  0  0  0  0  0  0  0  0  0
  -19.2390    1.8285    0.0000 C   0  0  0  0  0  0  0  0  0  0  0  0
  -20.8376    1.8983    0.0000 H   0  0  0  0  0  0  0  0  0  0  0  0
  -20.4187    0.7476    0.0000 H   0  0  0  0  0  0  0  0  0  0  0  0
  -18.9612    3.4041    0.0000 C   0  0  0  0  0  0  0  0  0  0  0  0
  -18.6834    4.9798    0.0000 H   0  0  0  0  0  0  0  0  0  0  0  0
  -20.1868    4.4326    0.0000 H   0  0  0  0  0  0  0  0  0  0  0  0
  -17.4578    3.9514    0.0000 H   0  0  0  0  0  0  0  0  0  0  0  0
  -19.0418   -0.4257    0.0000 C   0  0  0  0  0  0  0  0  0  0  0  0
  -19.1116   -2.0241    0.0000 H   0  0  0  0  0  0  0  0  0  0  0  0
  -17.9609   -1.6054    0.0000 H   0  0  0  0  0  0  0  0  0  0  0  0
  -20.6416   -0.4257    0.0000 C   0  0  0  0  0  0  0  0  0  0  0  0
  -21.4419   -1.8113    0.0000 H   0  0  0  0  0  0  0  0  0  0  0  0
  -22.2418   -0.4257    0.0000 H   0  0  0  0  0  0  0  0  0  0  0  0
  -21.4419    0.9600    0.0000 H   0  0  0  0  0  0  0  0  0  0  0  0
  1  2  1  0  0  0  0
  1  3  1  0  0  0  0
  1  4  1  0  0  0  0
  1  5  1  0  0  0  0
  5  6  1  0  0  0  0
  5  7  1  0  0  0  0
  5  8  1  0  0  0  0
  8  9  1  0  0  0  0
  8 10  1  0  0  0  0
 10 11  1  0  0  0  0
 10 12  1  0  0  0  0
 10 13  1  0  0  0  0
 13 14  1  0  0  0  0
 13 15  1  0  0  0  0
 13 16  1  0  0  0  0
  8 17  1  0  0  0  0
 17 18  2  0  0  0  0
 17 19  1  0  0  0  0
 19 20  1  0  0  0  0
 20 21  1  0  0  0  0
 20 22  1  0  0  0  0
 20 23  1  0  0  0  0
 23 24  1  0  0  0  0
 23 25  1  0  0  0  0
 23 26  1  0  0  0  0
 26 27  1  0  0  0  0
 27 28  1  0  0  0  0
 27 29  1  0  0  0  0
 27 30  1  0  0  0  0
 30 31  1  0  0  0  0
 30 32  1  0  0  0  0
 30 33  1  0  0  0  0
 33 34  1  0  0  0  0
 34 35  1  0  0  0  0
 34 36  1  0  0  0  0
 34 37  1  0  0  0  0
 37 38  1  0  0  0  0
 37 39  1  0  0  0  0
 37 40  1  0  0  0  0
 40 41  1  0  0  0  0
 41 42  2  0  0  0  0
 41 43  1  0  0  0  0
 43 44  1  0  0  0  0
 43 45  1  0  0  0  0
 45 46  1  0  0  0  0
 45 47  1  0  0  0  0
 45 48  1  0  0  0  0
 48 49  1  0  0  0  0
 48 50  1  0  0  0  0
 48 51  1  0  0  0  0
 43 52  1  0  0  0  0
 52 53  1  0  0  0  0
 52 54  1  0  0  0  0
 52 55  1  0  0  0  0
 55 56  1  0  0  0  0
 55 57  1  0  0  0  0
 55 58  1  0  0  0  0
M  END
> <ChemID>
201554

> <source_casrn>
95-08-9

> <CAS>
NOCAS_861696

> <SMILES>
CCC(CC)C(=O)OCCOCCOCCOC(=O)C(CC)CC

> <NAME>


> <preferred_name>


> <iupac>


> <MPID>
101346

> <dsstox_substance_id>
DTXSID80861696

> <Canonical_QSARr>
CCC(CC)C(=O)OCCOCCOCCOC(=O)C(CC)CC

> <InChI_Code_QSARr>
InChI=1S/C18H34O6/c1-5-15(6-2)17(19)23-13-11-21-9-10-22-12-14-24-18(20)16(7-3)8-4/h15-16H,5-14H2,1-4H3

> <InChI Key_QSARr>
JEYLQCXBYFQJRO-UHFFFAOYSA-N

> <Salt_Solvent>


> <Ready_Biodeg>
1.0

$$$$
201558
  -INDIGO-08031722522D

 41 40  0  0  0  0  0  0  0  0999 V2000
    1.2256   -2.6285    0.0000 C   0  0  0  0  0  0  0  0  0  0  0  0
    2.4513   -3.6570    0.0000 H   0  0  0  0  0  0  0  0  0  0  0  0
    0.9479   -4.2042    0.0000 H   0  0  0  0  0  0  0  0  0  0  0  0
    2.7292   -2.0813    0.0000 H   0  0  0  0  0  0  0  0  0  0  0  0
    0.0001   -1.5999    0.0000 C   0  0  0  0  0  0  0  0  0  0  0  0
   -0.9740   -2.8693    0.0000 H   0  0  0  0  0  0  0  0  0  0  0  0
   -1.5862   -1.8088    0.0000 H   0  0  0  0  0  0  0  0  0  0  0  0
    0.0001    0.0000    0.0000 C   0  0  0  0  0  0  0  0  0  0  0  0
    0.0001    1.6000    0.0000 C   0  0  0  0  0  0  0  0  0  0  0  0
    0.9740    2.8694    0.0000 H   0  0  0  0  0  0  0  0  0  0  0  0
    1.5862    1.8089    0.0000 H   0  0  0  0  0  0  0  0  0  0  0  0
   -1.2256    2.6285    0.0000 O   0  0  0  0  0  0  0  0  0  0  0  0
   -0.9479    4.2042    0.0000 C   0  0  0  0  0  0  0  0  0  0  0  0
    0.5557    4.7513    0.0000 O   0  0  0  0  0  0  0  0  0  0  0  0
   -2.1734    5.2325    0.0000 C   0  0  0  0  0  0  0  0  0  0  0  0
   -3.6770    4.6854    0.0000 H   0  0  0  0  0  0  0  0  0  0  0  0
   -1.8957    6.8082    0.0000 C   0  0  0  0  0  0  0  0  0  0  0  0
   -3.1214    7.8368    0.0000 H   0  0  0  0  0  0  0  0  0  0  0  0
   -0.3921    7.3556    0.0000 H   0  0  0  0  0  0  0  0  0  0  0  0
    1.6001    0.0000    0.0000 C   0  0  0  0  0  0  0  0  0  0  0  0
    2.8694   -0.9739    0.0000 H   0  0  0  0  0  0  0  0  0  0  0  0
    1.8089   -1.5863    0.0000 H   0  0  0  0  0  0  0  0  0  0  0  0
    2.6285    1.2257    0.0000 O   0  0  0  0  0  0  0  0  0  0  0  0
    4.2041    0.9479    0.0000 C   0  0  0  0  0  0  0  0  0  0  0  0
    4.7513   -0.5556    0.0000 O   0  0  0  0  0  0  0  0  0  0  0  0
    5.2325    2.1736    0.0000 C   0  0  0  0  0  0  0  0  0  0  0  0
    4.6853    3.6771    0.0000 H   0  0  0  0  0  0  0  0  0  0  0  0
    6.8084    1.8956    0.0000 C   0  0  0  0  0  0  0  0  0  0  0  0
    7.8368    3.1213    0.0000 H   0  0  0  0  0  0  0  0  0  0  0  0
    7.3556    0.3921    0.0000 H   0  0  0  0  0  0  0  0  0  0  0  0
   -1.6001    0.0000    0.0000 C   0  0  0  0  0  0  0  0  0  0  0  0
   -2.8694    0.9740    0.0000 H   0  0  0  0  0  0  0  0  0  0  0  0
   -1.8089    1.5864    0.0000 H   0  0  0  0  0  0  0  0  0  0  0  0
   -2.6285   -1.2257    0.0000 O   0  0  0  0  0  0  0  0  0  0  0  0
   -4.2041   -0.9479    0.0000 C   0  0  0  0  0  0  0  0  0  0  0  0
   -4.7513    0.5556    0.0000 O   0  0  0  0  0  0  0  0  0  0  0  0
   -5.2325   -2.1735    0.0000 C   0  0  0  0  0  0  0  0  0  0  0  0
   -4.6853   -3.6770    0.0000 H   0  0  0  0  0  0  0  0  0  0  0  0
   -6.8084   -1.8957    0.0000 C   0  0  0  0  0  0  0  0  0  0  0  0
   -7.8368   -3.1214    0.0000 H   0  0  0  0  0  0  0  0  0  0  0  0
   -7.3556   -0.3923    0.0000 H   0  0  0  0  0  0  0  0  0  0  0  0
  1  2  1  0  0  0  0
  1  3  1  0  0  0  0
  1  4  1  0  0  0  0
  1  5  1  0  0  0  0
  5  6  1  0  0  0  0
  5  7  1  0  0  0  0
  5  8  1  0  0  0  0
  8  9  1  0  0  0  0
  9 10  1  0  0  0  0
  9 11  1  0  0  0  0
  9 12  1  0  0  0  0
 12 13  1  0  0  0  0
 13 14  2  0  0  0  0
 13 15  1  0  0  0  0
 15 16  1  0  0  0  0
 15 17  2  0  0  0  0
 17 18  1  0  0  0  0
 17 19  1  0  0  0  0
  8 20  1  0  0  0  0
 20 21  1  0  0  0  0
 20 22  1  0  0  0  0
 20 23  1  0  0  0  0
 23 24  1  0  0  0  0
 24 25  2  0  0  0  0
 24 26  1  0  0  0  0
 26 27  1  0  0  0  0
 26 28  2  0  0  0  0
 28 29  1  0  0  0  0
 28 30  1  0  0  0  0
  8 31  1  0  0  0  0
 31 32  1  0  0  0  0
 31 33  1  0  0  0  0
 31 34  1  0  0  0  0
 34 35  1  0  0  0  0
 35 36  2  0  0  0  0
 35 37  1  0  0  0  0
 37 38  1  0  0  0  0
 37 39  2  0  0  0  0
 39 40  1  0  0  0  0
 39 41  1  0  0  0  0
M  END
> <ChemID>
201558

> <source_casrn>
15625-89-5

> <CAS>
15625-89-5

> <SMILES>
CCC(COC(=O)C=C)(COC(=O)C=C)COC(=O)C=C

> <NAME>


> <preferred_name>
Trimethylolpropane triacrylate

> <iupac>
2,2-bis[(acryloyloxy)methyl]butyl prop-2-enoate

> <MPID>
101348

> <dsstox_substance_id>
DTXSID0027773

> <Canonical_QSARr>
CCC(COC(=O)C=C)(COC(=O)C=C)COC(=O)C=C

> <InChI_Code_QSARr>
InChI=1S/C15H20O6/c1-5-12(16)19-9-15(8-4,10-20-13(17)6-2)11-21-14(18)7-3/h5-7H,1-3,8-11H2,4H3

> <InChI Key_QSARr>
DAKWPKUUDNSNPN-UHFFFAOYSA-N

> <Salt_Solvent>


> <Ready_Biodeg>
0.0

$$$$
201562
  -INDIGO-08031722522D

 16 15  0  0  0  0  0  0  0  0999 V2000
    2.7712    0.0000    0.0000 C   0  0  0  0  0  0  0  0  0  0  0  0
    4.1569   -0.8000    0.0000 H   0  0  0  0  0  0  0  0  0  0  0  0
    4.1569    0.8000    0.0000 H   0  0  0  0  0  0  0  0  0  0  0  0
    2.7713   -1.6000    0.0000 H   0  0  0  0  0  0  0  0  0  0  0  0
    1.3856    0.8000    0.0000 C   0  0  0  0  0  0  0  0  0  0  0  0
    0.7734    2.2782    0.0000 H   0  0  0  0  0  0  0  0  0  0  0  0
    1.9979    2.2782    0.0000 H   0  0  0  0  0  0  0  0  0  0  0  0
    0.0001    0.0000    0.0000 C   0  0  0  0  0  0  0  0  0  0  0  0
    0.8000   -1.3856    0.0000 H   0  0  0  0  0  0  0  0  0  0  0  0
   -0.8000    1.3856    0.0000 O   0  0  0  0  0  0  0  0  0  0  0  0
   -2.4000    1.3856    0.0000 H   0  0  0  0  0  0  0  0  0  0  0  0
   -1.3856   -0.8000    0.0000 C   0  0  0  0  0  0  0  0  0  0  0  0
   -0.7734   -2.2782    0.0000 H   0  0  0  0  0  0  0  0  0  0  0  0
   -1.9979   -2.2782    0.0000 H   0  0  0  0  0  0  0  0  0  0  0  0
   -2.7712    0.0000    0.0000 O   0  0  0  0  0  0  0  0  0  0  0  0
   -4.1569   -0.8000    0.0000 H   0  0  0  0  0  0  0  0  0  0  0  0
  1  2  1  0  0  0  0
  1  3  1  0  0  0  0
  1  4  1  0  0  0  0
  1  5  1  0  0  0  0
  5  6  1  0  0  0  0
  5  7  1  0  0  0  0
  5  8  1  0  0  0  0
  8  9  1  0  0  0  0
  8 10  1  0  0  0  0
 10 11  1  0  0  0  0
  8 12  1  0  0  0  0
 12 13  1  0  0  0  0
 12 14  1  0  0  0  0
 12 15  1  0  0  0  0
 15 16  1  0  0  0  0
M  END
> <ChemID>
201562

> <source_casrn>
584-03-2

> <CAS>
584-03-2

> <SMILES>
CCC(O)CO

> <NAME>


> <preferred_name>
1,2-Butanediol

> <iupac>
butane-1,2-diol

> <MPID>
101351

> <dsstox_substance_id>
DTXSID6040375

> <Canonical_QSARr>
CCC(O)CO

> <InChI_Code_QSARr>
InChI=1S/C4H10O2/c1-2-4(6)3-5/h4-6H,2-3H2,1H3

> <InChI Key_QSARr>
BMRWNKZVCUKKSR-UHFFFAOYSA-N

> <Salt_Solvent>


> <Ready_Biodeg>
1.0

$$$$
201566
  -INDIGO-08031722522D

 19 18  0  0  0  0  0  0  0  0999 V2000
    5.5425    0.0000    0.0000 C   0  0  0  0  0  0  0  0  0  0  0  0
    6.9282   -0.8000    0.0000 H   0  0  0  0  0  0  0  0  0  0  0  0
    6.9282    0.8000    0.0000 H   0  0  0  0  0  0  0  0  0  0  0  0
    5.5425   -1.6000    0.0000 H   0  0  0  0  0  0  0  0  0  0  0  0
    4.1569    0.8000    0.0000 C   0  0  0  0  0  0  0  0  0  0  0  0
    4.7692    2.2782    0.0000 H   0  0  0  0  0  0  0  0  0  0  0  0
    3.5446    2.2782    0.0000 H   0  0  0  0  0  0  0  0  0  0  0  0
    2.7712    0.0000    0.0000 C   0  0  0  0  0  0  0  0  0  0  0  0
    2.7712   -1.6000    0.0000 H   0  0  0  0  0  0  0  0  0  0  0  0
    1.3856    0.8000    0.0000 C   0  0  0  0  0  0  0  0  0  0  0  0
    1.3857    2.4000    0.0000 H   0  0  0  0  0  0  0  0  0  0  0  0
    0.0001    0.0000    0.0000 C   0  0  0  0  0  0  0  0  0  0  0  0
   -0.6123   -1.4782    0.0000 H   0  0  0  0  0  0  0  0  0  0  0  0
    0.6122   -1.4782    0.0000 H   0  0  0  0  0  0  0  0  0  0  0  0
   -1.3856    0.8000    0.0000 C   0  0  0  0  0  0  0  0  0  0  0  0
   -0.7733    2.2782    0.0000 H   0  0  0  0  0  0  0  0  0  0  0  0
   -1.9979    2.2782    0.0000 H   0  0  0  0  0  0  0  0  0  0  0  0
   -2.7713    0.0000    0.0000 O   0  0  0  0  0  0  0  0  0  0  0  0
   -4.1569    0.8000    0.0000 H   0  0  0  0  0  0  0  0  0  0  0  0
  1  2  1  0  0  0  0
  1  3  1  0  0  0  0
  1  4  1  0  0  0  0
  1  5  1  0  0  0  0
  5  6  1  0  0  0  0
  5  7  1  0  0  0  0
  5  8  1  0  0  0  0
  8  9  1  0  0  0  0
  8 10  2  0  0  0  0
 10 11  1  0  0  0  0
 10 12  1  0  0  0  0
 12 13  1  0  0  0  0
 12 14  1  0  0  0  0
 12 15  1  0  0  0  0
 15 16  1  0  0  0  0
 15 17  1  0  0  0  0
 15 18  1  0  0  0  0
 18 19  1  0  0  0  0
M  END
> <ChemID>
201566

> <source_casrn>
928-96-1

> <CAS>
928-96-1

> <SMILES>
CC\C=C/CCO

> <NAME>


> <preferred_name>
(Z)-3-Hexen-1-ol

> <iupac>
(3Z)-hex-3-en-1-ol

> <MPID>
101354

> <dsstox_substance_id>
DTXSID6022137

> <Canonical_QSARr>
CCC=CCCO

> <InChI_Code_QSARr>
InChI=1S/C6H12O/c1-2-3-4-5-6-7/h3-4,7H,2,5-6H2,1H3/b4-3+

> <InChI Key_QSARr>
UFLHIIWVXFIJGU-ONEGZZNKSA-N

> <Salt_Solvent>


> <Ready_Biodeg>
1.0

$$$$
201574
  -INDIGO-08031722522D

 31 30  0  0  0  0  0  0  0  0999 V2000
    5.3857   -2.1856    0.0000 C   0  0  0  0  0  0  0  0  0  0  0  0
    6.9856   -2.1856    0.0000 H   0  0  0  0  0  0  0  0  0  0  0  0
    6.1856   -3.5713    0.0000 H   0  0  0  0  0  0  0  0  0  0  0  0
    6.1856   -0.8000    0.0000 H   0  0  0  0  0  0  0  0  0  0  0  0
    3.7856   -2.1856    0.0000 C   0  0  0  0  0  0  0  0  0  0  0  0
    3.5768   -3.7720    0.0000 H   0  0  0  0  0  0  0  0  0  0  0  0
    2.5163   -3.1597    0.0000 H   0  0  0  0  0  0  0  0  0  0  0  0
    2.9856   -0.8000    0.0000 C   0  0  0  0  0  0  0  0  0  0  0  0
    3.1944    0.7863    0.0000 H   0  0  0  0  0  0  0  0  0  0  0  0
    4.2551    0.1740    0.0000 H   0  0  0  0  0  0  0  0  0  0  0  0
    1.3856   -0.8000    0.0000 C   0  0  0  0  0  0  0  0  0  0  0  0
    1.9980   -2.2783    0.0000 H   0  0  0  0  0  0  0  0  0  0  0  0
    0.7733   -2.2783    0.0000 H   0  0  0  0  0  0  0  0  0  0  0  0
   -0.0000    0.0001    0.0000 C   0  0  0  0  0  0  0  0  0  0  0  0
   -1.3857    0.8000    0.0000 C   0  0  0  0  0  0  0  0  0  0  0  0
   -1.9979    2.2783    0.0000 H   0  0  0  0  0  0  0  0  0  0  0  0
   -0.7733    2.2783    0.0000 H   0  0  0  0  0  0  0  0  0  0  0  0
   -2.8891    0.2527    0.0000 C   0  0  0  0  0  0  0  0  0  0  0  0
   -4.3927   -0.2944    0.0000 H   0  0  0  0  0  0  0  0  0  0  0  0
   -4.1149    1.2812    0.0000 H   0  0  0  0  0  0  0  0  0  0  0  0
   -3.1671   -1.3229    0.0000 H   0  0  0  0  0  0  0  0  0  0  0  0
    0.8000    1.3857    0.0000 C   0  0  0  0  0  0  0  0  0  0  0  0
    2.1494    2.2454    0.0000 H   0  0  0  0  0  0  0  0  0  0  0  0
    2.1494    0.5260    0.0000 H   0  0  0  0  0  0  0  0  0  0  0  0
    0.2528    2.8892    0.0000 O   0  0  0  0  0  0  0  0  0  0  0  0
    1.2813    4.1148    0.0000 H   0  0  0  0  0  0  0  0  0  0  0  0
   -0.8001   -1.3857    0.0000 C   0  0  0  0  0  0  0  0  0  0  0  0
   -2.2783   -1.9980    0.0000 H   0  0  0  0  0  0  0  0  0  0  0  0
   -2.2783   -0.7734    0.0000 H   0  0  0  0  0  0  0  0  0  0  0  0
   -0.2528   -2.8892    0.0000 O   0  0  0  0  0  0  0  0  0  0  0  0
   -1.2812   -4.1148    0.0000 H   0  0  0  0  0  0  0  0  0  0  0  0
  1  2  1  0  0  0  0
  1  3  1  0  0  0  0
  1  4  1  0  0  0  0
  1  5  1  0  0  0  0
  5  6  1  0  0  0  0
  5  7  1  0  0  0  0
  5  8  1  0  0  0  0
  8  9  1  0  0  0  0
  8 10  1  0  0  0  0
  8 11  1  0  0  0  0
 11 12  1  0  0  0  0
 11 13  1  0  0  0  0
 11 14  1  0  0  0  0
 14 15  1  0  0  0  0
 15 16  1  0  0  0  0
 15 17  1  0  0  0  0
 15 18  1  0  0  0  0
 18 19  1  0  0  0  0
 18 20  1  0  0  0  0
 18 21  1  0  0  0  0
 14 22  1  0  0  0  0
 22 23  1  0  0  0  0
 22 24  1  0  0  0  0
 22 25  1  0  0  0  0
 25 26  1  0  0  0  0
 14 27  1  0  0  0  0
 27 28  1  0  0  0  0
 27 29  1  0  0  0  0
 27 30  1  0  0  0  0
 30 31  1  0  0  0  0
M  END
> <ChemID>
201574

> <source_casrn>
115-84-4

> <CAS>
115-84-4

> <SMILES>
CCCCC(CC)(CO)CO

> <NAME>


> <preferred_name>
2-Butyl-2-ethyl-1,3-propanediol

> <iupac>
2-butyl-2-ethylpropane-1,3-diol

> <MPID>
101359

> <dsstox_substance_id>
DTXSID8041400

> <Canonical_QSARr>
CCCCC(CO)(CO)CC

> <InChI_Code_QSARr>
InChI=1S/C9H20O2/c1-3-5-6-9(4-2,7-10)8-11/h10-11H,3-8H2,1-2H3

> <InChI Key_QSARr>
DSKYSDCYIODJPC-UHFFFAOYSA-N

> <Salt_Solvent>


> <Ready_Biodeg>
0.0

$$$$
201586
  -INDIGO-08031722522D

 17 16  0  0  0  0  0  0  0  0999 V2000
    2.7713   -0.0000    0.0000 C   0  0  0  0  0  0  0  0  0  0  0  0
    4.1569   -0.8000    0.0000 H   0  0  0  0  0  0  0  0  0  0  0  0
    4.1569    0.8000    0.0000 H   0  0  0  0  0  0  0  0  0  0  0  0
    2.7713   -1.6000    0.0000 H   0  0  0  0  0  0  0  0  0  0  0  0
    1.3856    0.8000    0.0000 C   0  0  0  0  0  0  0  0  0  0  0  0
    0.7734    2.2782    0.0000 H   0  0  0  0  0  0  0  0  0  0  0  0
    1.9979    2.2782    0.0000 H   0  0  0  0  0  0  0  0  0  0  0  0
    0.0001   -0.0000    0.0000 C   0  0  0  0  0  0  0  0  0  0  0  0
    0.6123   -1.4782    0.0000 H   0  0  0  0  0  0  0  0  0  0  0  0
   -0.6123   -1.4782    0.0000 H   0  0  0  0  0  0  0  0  0  0  0  0
   -1.3856    0.8000    0.0000 C   0  0  0  0  0  0  0  0  0  0  0  0
   -1.9979    2.2782    0.0000 H   0  0  0  0  0  0  0  0  0  0  0  0
   -0.7734    2.2782    0.0000 H   0  0  0  0  0  0  0  0  0  0  0  0
   -2.7713   -0.0000    0.0000 C   0  0  0  0  0  0  0  0  0  0  0  0
   -4.1569   -0.8000    0.0000 H   0  0  0  0  0  0  0  0  0  0  0  0
   -4.1569    0.8000    0.0000 H   0  0  0  0  0  0  0  0  0  0  0  0
   -2.7713   -1.6000    0.0000 Br  0  0  0  0  0  0  0  0  0  0  0  0
  1  2  1  0  0  0  0
  1  3  1  0  0  0  0
  1  4  1  0  0  0  0
  1  5  1  0  0  0  0
  5  6  1  0  0  0  0
  5  7  1  0  0  0  0
  5  8  1  0  0  0  0
  8  9  1  0  0  0  0
  8 10  1  0  0  0  0
  8 11  1  0  0  0  0
 11 12  1  0  0  0  0
 11 13  1  0  0  0  0
 11 14  1  0  0  0  0
 14 15  1  0  0  0  0
 14 16  1  0  0  0  0
 14 17  1  0  0  0  0
M  END
> <ChemID>
201586

> <source_casrn>
110-53-2

> <CAS>
110-53-2

> <SMILES>
CCCCCBr

> <NAME>


> <preferred_name>
1-Bromopentane

> <iupac>
1-bromopentane

> <MPID>
101363

> <dsstox_substance_id>
DTXSID3049203

> <Canonical_QSARr>
CCCCCBr

> <InChI_Code_QSARr>
InChI=1S/C5H11Br/c1-2-3-4-5-6/h2-5H2,1H3

> <InChI Key_QSARr>
YZWKKMVJZFACSU-UHFFFAOYSA-N

> <Salt_Solvent>


> <Ready_Biodeg>
0.0

$$$$
201590
  -INDIGO-08031722522D

167172  0  0  0  0  0  0  0  0999 V2000
    7.2074   -8.6920    0.0000 C   0  0  0  0  0  0  0  0  0  0  0  0
    7.7545  -10.1954    0.0000 H   0  0  0  0  0  0  0  0  0  0  0  0
    8.7831   -8.9695    0.0000 H   0  0  0  0  0  0  0  0  0  0  0  0
    6.1789   -9.9174    0.0000 H   0  0  0  0  0  0  0  0  0  0  0  0
    6.6603   -7.1881    0.0000 C   0  0  0  0  0  0  0  0  0  0  0  0
    8.0791   -6.4496    0.0000 H   0  0  0  0  0  0  0  0  0  0  0  0
    7.1410   -5.6625    0.0000 H   0  0  0  0  0  0  0  0  0  0  0  0
    5.0839   -6.9107    0.0000 C   0  0  0  0  0  0  0  0  0  0  0  0
    3.6651   -7.6492    0.0000 H   0  0  0  0  0  0  0  0  0  0  0  0
    4.6032   -8.4363    0.0000 H   0  0  0  0  0  0  0  0  0  0  0  0
    4.5368   -5.4067    0.0000 C   0  0  0  0  0  0  0  0  0  0  0  0
    5.9564   -4.6683    0.0000 H   0  0  0  0  0  0  0  0  0  0  0  0
    5.0183   -3.8811    0.0000 H   0  0  0  0  0  0  0  0  0  0  0  0
    2.9612   -5.1293    0.0000 C   0  0  0  0  0  0  0  0  0  0  0  0
    1.5424   -5.8678    0.0000 H   0  0  0  0  0  0  0  0  0  0  0  0
    2.4805   -6.6549    0.0000 H   0  0  0  0  0  0  0  0  0  0  0  0
    2.4141   -3.6254    0.0000 C   0  0  0  0  0  0  0  0  0  0  0  0
    3.7996   -2.8259    0.0000 H   0  0  0  0  0  0  0  0  0  0  0  0
    0.8385   -3.9034    0.0000 O   0  0  0  0  0  0  0  0  0  0  0  0
    1.3855   -2.4001    0.0000 C   0  0  0  0  0  0  0  0  0  0  0  0
    2.4141   -1.1742    0.0000 H   0  0  0  0  0  0  0  0  0  0  0  0
    0.0000   -1.6000    0.0000 C   0  0  0  0  0  0  0  0  0  0  0  0
   -1.5864   -1.8088    0.0000 H   0  0  0  0  0  0  0  0  0  0  0  0
   -0.9738   -2.8693    0.0000 H   0  0  0  0  0  0  0  0  0  0  0  0
    0.0000    0.0001    0.0000 C   0  0  0  0  0  0  0  0  0  0  0  0
    1.5756    0.2776    0.0000 H   0  0  0  0  0  0  0  0  0  0  0  0
   -1.5756    0.2776    0.0000 O   0  0  0  0  0  0  0  0  0  0  0  0
   -0.5471    1.5035    0.0000 C   0  0  0  0  0  0  0  0  0  0  0  0
    0.8385    2.3035    0.0000 H   0  0  0  0  0  0  0  0  0  0  0  0
   -1.5756    2.7294    0.0000 C   0  0  0  0  0  0  0  0  0  0  0  0
   -3.1380    3.0754    0.0000 H   0  0  0  0  0  0  0  0  0  0  0  0
   -2.9255    1.8695    0.0000 H   0  0  0  0  0  0  0  0  0  0  0  0
   -1.0286    4.2327    0.0000 C   0  0  0  0  0  0  0  0  0  0  0  0
    0.5338    3.8866    0.0000 H   0  0  0  0  0  0  0  0  0  0  0  0
    0.3213    5.0926    0.0000 H   0  0  0  0  0  0  0  0  0  0  0  0
   -2.0571    5.4586    0.0000 C   0  0  0  0  0  0  0  0  0  0  0  0
   -3.6186    5.8047    0.0000 H   0  0  0  0  0  0  0  0  0  0  0  0
   -3.4061    4.5987    0.0000 H   0  0  0  0  0  0  0  0  0  0  0  0
   -1.5100    6.9619    0.0000 C   0  0  0  0  0  0  0  0  0  0  0  0
    0.0523    6.6153    0.0000 H   0  0  0  0  0  0  0  0  0  0  0  0
   -0.1602    7.8218    0.0000 H   0  0  0  0  0  0  0  0  0  0  0  0
   -2.5378    8.1873    0.0000 C   0  0  0  0  0  0  0  0  0  0  0  0
   -4.1001    8.5339    0.0000 H   0  0  0  0  0  0  0  0  0  0  0  0
   -3.8876    7.3280    0.0000 H   0  0  0  0  0  0  0  0  0  0  0  0
   -1.9907    9.6912    0.0000 C   0  0  0  0  0  0  0  0  0  0  0  0
   -0.4292    9.3445    0.0000 H   0  0  0  0  0  0  0  0  0  0  0  0
   -0.6417   10.5505    0.0000 H   0  0  0  0  0  0  0  0  0  0  0  0
   -3.0193   10.9165    0.0000 C   0  0  0  0  0  0  0  0  0  0  0  0
   -4.5816   11.2632    0.0000 H   0  0  0  0  0  0  0  0  0  0  0  0
   -4.3691   10.0572    0.0000 H   0  0  0  0  0  0  0  0  0  0  0  0
   -2.4722   12.4204    0.0000 C   0  0  0  0  0  0  0  0  0  0  0  0
   -0.8966   12.6979    0.0000 O   0  0  0  0  0  0  0  0  0  0  0  0
   -3.5008   13.6457    0.0000 O   0  0  0  0  0  0  0  0  0  0  0  0
   -2.9537   15.1497    0.0000 C   0  0  0  0  0  0  0  0  0  0  0  0
   -1.3913   14.8030    0.0000 H   0  0  0  0  0  0  0  0  0  0  0  0
   -1.6039   16.0090    0.0000 H   0  0  0  0  0  0  0  0  0  0  0  0
   -3.9814   16.3750    0.0000 C   0  0  0  0  0  0  0  0  0  0  0  0
   -5.0100   17.6009    0.0000 H   0  0  0  0  0  0  0  0  0  0  0  0
   -2.9537   17.6009    0.0000 C   0  0  0  0  0  0  0  0  0  0  0  0
   -2.8840   19.1993    0.0000 H   0  0  0  0  0  0  0  0  0  0  0  0
   -4.0346   18.7805    0.0000 H   0  0  0  0  0  0  0  0  0  0  0  0
   -1.3781   17.3229    0.0000 O   0  0  0  0  0  0  0  0  0  0  0  0
   -0.3495   18.5488    0.0000 C   0  0  0  0  0  0  0  0  0  0  0  0
   -0.8966   20.0521    0.0000 O   0  0  0  0  0  0  0  0  0  0  0  0
    1.2261   18.2707    0.0000 C   0  0  0  0  0  0  0  0  0  0  0  0
    1.1564   16.6724    0.0000 H   0  0  0  0  0  0  0  0  0  0  0  0
    2.3078   17.0912    0.0000 H   0  0  0  0  0  0  0  0  0  0  0  0
    2.2547   19.4966    0.0000 C   0  0  0  0  0  0  0  0  0  0  0  0
    2.3244   21.0950    0.0000 H   0  0  0  0  0  0  0  0  0  0  0  0
    1.1738   20.6762    0.0000 H   0  0  0  0  0  0  0  0  0  0  0  0
    3.8303   19.2186    0.0000 C   0  0  0  0  0  0  0  0  0  0  0  0
    3.7606   17.6202    0.0000 H   0  0  0  0  0  0  0  0  0  0  0  0
    4.9112   18.0390    0.0000 H   0  0  0  0  0  0  0  0  0  0  0  0
    4.8589   20.4445    0.0000 C   0  0  0  0  0  0  0  0  0  0  0  0
    4.9286   22.0429    0.0000 H   0  0  0  0  0  0  0  0  0  0  0  0
    3.7780   21.6241    0.0000 H   0  0  0  0  0  0  0  0  0  0  0  0
    6.4345   20.1665    0.0000 C   0  0  0  0  0  0  0  0  0  0  0  0
    6.3648   18.5681    0.0000 H   0  0  0  0  0  0  0  0  0  0  0  0
    7.5154   18.9869    0.0000 H   0  0  0  0  0  0  0  0  0  0  0  0
    7.4631   21.3918    0.0000 C   0  0  0  0  0  0  0  0  0  0  0  0
    7.5328   22.9908    0.0000 H   0  0  0  0  0  0  0  0  0  0  0  0
    6.3822   22.5719    0.0000 H   0  0  0  0  0  0  0  0  0  0  0  0
    9.0387   21.1144    0.0000 C   0  0  0  0  0  0  0  0  0  0  0  0
    8.9690   19.5160    0.0000 H   0  0  0  0  0  0  0  0  0  0  0  0
   10.1196   19.9348    0.0000 H   0  0  0  0  0  0  0  0  0  0  0  0
   10.0673   22.3397    0.0000 C   0  0  0  0  0  0  0  0  0  0  0  0
    8.8420   23.3685    0.0000 H   0  0  0  0  0  0  0  0  0  0  0  0
   11.2934   23.3685    0.0000 O   0  0  0  0  0  0  0  0  0  0  0  0
   11.5707   21.7924    0.0000 C   0  0  0  0  0  0  0  0  0  0  0  0
   11.2934   20.2169    0.0000 H   0  0  0  0  0  0  0  0  0  0  0  0
   13.1713   21.7924    0.0000 C   0  0  0  0  0  0  0  0  0  0  0  0
   13.3796   20.2064    0.0000 H   0  0  0  0  0  0  0  0  0  0  0  0
   14.4406   20.8187    0.0000 H   0  0  0  0  0  0  0  0  0  0  0  0
   13.9707   23.1784    0.0000 C   0  0  0  0  0  0  0  0  0  0  0  0
   12.5852   23.9785    0.0000 H   0  0  0  0  0  0  0  0  0  0  0  0
   14.9993   24.4038    0.0000 O   0  0  0  0  0  0  0  0  0  0  0  0
   15.5463   22.9004    0.0000 C   0  0  0  0  0  0  0  0  0  0  0  0
   15.5463   21.3003    0.0000 H   0  0  0  0  0  0  0  0  0  0  0  0
   17.1220   23.1784    0.0000 C   0  0  0  0  0  0  0  0  0  0  0  0
   17.6035   21.6522    0.0000 H   0  0  0  0  0  0  0  0  0  0  0  0
   18.5415   22.4394    0.0000 H   0  0  0  0  0  0  0  0  0  0  0  0
   17.6699   24.6818    0.0000 C   0  0  0  0  0  0  0  0  0  0  0  0
   17.1884   26.2080    0.0000 H   0  0  0  0  0  0  0  0  0  0  0  0
   16.2503   25.4209    0.0000 H   0  0  0  0  0  0  0  0  0  0  0  0
   19.2455   24.9598    0.0000 C   0  0  0  0  0  0  0  0  0  0  0  0
   19.7262   23.4336    0.0000 H   0  0  0  0  0  0  0  0  0  0  0  0
   20.6642   24.2208    0.0000 H   0  0  0  0  0  0  0  0  0  0  0  0
   19.7926   26.4632    0.0000 C   0  0  0  0  0  0  0  0  0  0  0  0
   19.3111   27.9894    0.0000 H   0  0  0  0  0  0  0  0  0  0  0  0
   18.3730   27.2022    0.0000 H   0  0  0  0  0  0  0  0  0  0  0  0
   21.3682   26.7412    0.0000 C   0  0  0  0  0  0  0  0  0  0  0  0
   22.9438   27.0186    0.0000 H   0  0  0  0  0  0  0  0  0  0  0  0
   21.9153   28.2445    0.0000 H   0  0  0  0  0  0  0  0  0  0  0  0
   22.3968   25.5153    0.0000 H   0  0  0  0  0  0  0  0  0  0  0  0
   -5.2076   15.3468    0.0000 O   0  0  0  0  0  0  0  0  0  0  0  0
   -6.7110   15.8940    0.0000 C   0  0  0  0  0  0  0  0  0  0  0  0
   -6.9891   17.4695    0.0000 O   0  0  0  0  0  0  0  0  0  0  0  0
   -7.9363   14.8652    0.0000 C   0  0  0  0  0  0  0  0  0  0  0  0
   -8.2833   13.3032    0.0000 H   0  0  0  0  0  0  0  0  0  0  0  0
   -7.0771   13.5161    0.0000 H   0  0  0  0  0  0  0  0  0  0  0  0
   -9.4405   15.4125    0.0000 C   0  0  0  0  0  0  0  0  0  0  0  0
   -9.0935   16.9745    0.0000 H   0  0  0  0  0  0  0  0  0  0  0  0
  -10.2997   16.7621    0.0000 H   0  0  0  0  0  0  0  0  0  0  0  0
  -10.6658   14.3842    0.0000 C   0  0  0  0  0  0  0  0  0  0  0  0
  -11.0120   12.8222    0.0000 H   0  0  0  0  0  0  0  0  0  0  0  0
   -9.8058   13.0346    0.0000 H   0  0  0  0  0  0  0  0  0  0  0  0
  -12.1692   14.9315    0.0000 C   0  0  0  0  0  0  0  0  0  0  0  0
  -11.8231   16.4935    0.0000 H   0  0  0  0  0  0  0  0  0  0  0  0
  -13.0293   16.2806    0.0000 H   0  0  0  0  0  0  0  0  0  0  0  0
  -13.3954   13.9027    0.0000 C   0  0  0  0  0  0  0  0  0  0  0  0
  -13.7416   12.3407    0.0000 H   0  0  0  0  0  0  0  0  0  0  0  0
  -12.5353   12.5536    0.0000 H   0  0  0  0  0  0  0  0  0  0  0  0
  -14.8988   14.4499    0.0000 C   0  0  0  0  0  0  0  0  0  0  0  0
  -14.5526   16.0125    0.0000 H   0  0  0  0  0  0  0  0  0  0  0  0
  -15.7580   15.7996    0.0000 H   0  0  0  0  0  0  0  0  0  0  0  0
  -16.1241   13.4217    0.0000 C   0  0  0  0  0  0  0  0  0  0  0  0
  -16.4703   11.8597    0.0000 H   0  0  0  0  0  0  0  0  0  0  0  0
  -15.2649   12.0720    0.0000 H   0  0  0  0  0  0  0  0  0  0  0  0
  -17.6275   13.9689    0.0000 C   0  0  0  0  0  0  0  0  0  0  0  0
  -17.3502   15.5444    0.0000 H   0  0  0  0  0  0  0  0  0  0  0  0
  -18.4278   12.5835    0.0000 O   0  0  0  0  0  0  0  0  0  0  0  0
  -19.2281   13.9689    0.0000 C   0  0  0  0  0  0  0  0  0  0  0  0
  -19.5053   15.5444    0.0000 H   0  0  0  0  0  0  0  0  0  0  0  0
  -20.7315   13.4217    0.0000 C   0  0  0  0  0  0  0  0  0  0  0  0
  -21.5907   12.0720    0.0000 H   0  0  0  0  0  0  0  0  0  0  0  0
  -20.3853   11.8597    0.0000 H   0  0  0  0  0  0  0  0  0  0  0  0
  -21.9568   14.4499    0.0000 C   0  0  0  0  0  0  0  0  0  0  0  0
  -21.1565   15.8359    0.0000 H   0  0  0  0  0  0  0  0  0  0  0  0
  -23.1829   13.4217    0.0000 O   0  0  0  0  0  0  0  0  0  0  0  0
  -23.4602   14.9972    0.0000 C   0  0  0  0  0  0  0  0  0  0  0  0
  -23.1829   16.5732    0.0000 H   0  0  0  0  0  0  0  0  0  0  0  0
  -25.0607   14.9972    0.0000 C   0  0  0  0  0  0  0  0  0  0  0  0
  -26.3300   14.0235    0.0000 H   0  0  0  0  0  0  0  0  0  0  0  0
  -25.2691   13.4111    0.0000 H   0  0  0  0  0  0  0  0  0  0  0  0
  -25.8602   16.3832    0.0000 C   0  0  0  0  0  0  0  0  0  0  0  0
  -24.5909   17.3569    0.0000 H   0  0  0  0  0  0  0  0  0  0  0  0
  -25.6518   17.9692    0.0000 H   0  0  0  0  0  0  0  0  0  0  0  0
  -27.4607   16.3832    0.0000 C   0  0  0  0  0  0  0  0  0  0  0  0
  -28.7300   15.4089    0.0000 H   0  0  0  0  0  0  0  0  0  0  0  0
  -27.6691   14.7966    0.0000 H   0  0  0  0  0  0  0  0  0  0  0  0
  -28.2602   17.7686    0.0000 C   0  0  0  0  0  0  0  0  0  0  0  0
  -26.9908   18.7429    0.0000 H   0  0  0  0  0  0  0  0  0  0  0  0
  -28.0518   19.3553    0.0000 H   0  0  0  0  0  0  0  0  0  0  0  0
  -29.8607   17.7686    0.0000 C   0  0  0  0  0  0  0  0  0  0  0  0
  -31.4604   17.7686    0.0000 H   0  0  0  0  0  0  0  0  0  0  0  0
  -30.6601   19.1541    0.0000 H   0  0  0  0  0  0  0  0  0  0  0  0
  -30.6601   16.3832    0.0000 H   0  0  0  0  0  0  0  0  0  0  0  0
  1  2  1  0  0  0  0
  1  3  1  0  0  0  0
  1  4  1  0  0  0  0
  1  5  1  0  0  0  0
  5  6  1  0  0  0  0
  5  7  1  0  0  0  0
  5  8  1  0  0  0  0
  8  9  1  0  0  0  0
  8 10  1  0  0  0  0
  8 11  1  0  0  0  0
 11 12  1  0  0  0  0
 11 13  1  0  0  0  0
 11 14  1  0  0  0  0
 14 15  1  0  0  0  0
 14 16  1  0  0  0  0
 14 17  1  0  0  0  0
 17 18  1  0  0  0  0
 17 19  1  0  0  0  0
 19 20  1  0  0  0  0
 20 17  1  0  0  0  0
 20 21  1  0  0  0  0
 20 22  1  0  0  0  0
 22 23  1  0  0  0  0
 22 24  1  0  0  0  0
 22 25  1  0  0  0  0
 25 26  1  0  0  0  0
 25 27  1  0  0  0  0
 27 28  1  0  0  0  0
 28 25  1  0  0  0  0
 28 29  1  0  0  0  0
 28 30  1  0  0  0  0
 30 31  1  0  0  0  0
 30 32  1  0  0  0  0
 30 33  1  0  0  0  0
 33 34  1  0  0  0  0
 33 35  1  0  0  0  0
 33 36  1  0  0  0  0
 36 37  1  0  0  0  0
 36 38  1  0  0  0  0
 36 39  1  0  0  0  0
 39 40  1  0  0  0  0
 39 41  1  0  0  0  0
 39 42  1  0  0  0  0
 42 43  1  0  0  0  0
 42 44  1  0  0  0  0
 42 45  1  0  0  0  0
 45 46  1  0  0  0  0
 45 47  1  0  0  0  0
 45 48  1  0  0  0  0
 48 49  1  0  0  0  0
 48 50  1  0  0  0  0
 48 51  1  0  0  0  0
 51 52  2  0  0  0  0
 51 53  1  0  0  0  0
 53 54  1  0  0  0  0
 54 55  1  0  0  0  0
 54 56  1  0  0  0  0
 54 57  1  0  0  0  0
 57 58  1  0  0  0  0
 57 59  1  0  0  0  0
 59 60  1  0  0  0  0
 59 61  1  0  0  0  0
 59 62  1  0  0  0  0
 62 63  1  0  0  0  0
 63 64  2  0  0  0  0
 63 65  1  0  0  0  0
 65 66  1  0  0  0  0
 65 67  1  0  0  0  0
 65 68  1  0  0  0  0
 68 69  1  0  0  0  0
 68 70  1  0  0  0  0
 68 71  1  0  0  0  0
 71 72  1  0  0  0  0
 71 73  1  0  0  0  0
 71 74  1  0  0  0  0
 74 75  1  0  0  0  0
 74 76  1  0  0  0  0
 74 77  1  0  0  0  0
 77 78  1  0  0  0  0
 77 79  1  0  0  0  0
 77 80  1  0  0  0  0
 80 81  1  0  0  0  0
 80 82  1  0  0  0  0
 80 83  1  0  0  0  0
 83 84  1  0  0  0  0
 83 85  1  0  0  0  0
 83 86  1  0  0  0  0
 86 87  1  0  0  0  0
 86 88  1  0  0  0  0
 88 89  1  0  0  0  0
 89 86  1  0  0  0  0
 89 90  1  0  0  0  0
 89 91  1  0  0  0  0
 91 92  1  0  0  0  0
 91 93  1  0  0  0  0
 91 94  1  0  0  0  0
 94 95  1  0  0  0  0
 94 96  1  0  0  0  0
 96 97  1  0  0  0  0
 97 94  1  0  0  0  0
 97 98  1  0  0  0  0
 97 99  1  0  0  0  0
 99100  1  0  0  0  0
 99101  1  0  0  0  0
 99102  1  0  0  0  0
102103  1  0  0  0  0
102104  1  0  0  0  0
102105  1  0  0  0  0
105106  1  0  0  0  0
105107  1  0  0  0  0
105108  1  0  0  0  0
108109  1  0  0  0  0
108110  1  0  0  0  0
108111  1  0  0  0  0
111112  1  0  0  0  0
111113  1  0  0  0  0
111114  1  0  0  0  0
 57115  1  0  0  0  0
115116  1  0  0  0  0
116117  2  0  0  0  0
116118  1  0  0  0  0
118119  1  0  0  0  0
118120  1  0  0  0  0
118121  1  0  0  0  0
121122  1  0  0  0  0
121123  1  0  0  0  0
121124  1  0  0  0  0
124125  1  0  0  0  0
124126  1  0  0  0  0
124127  1  0  0  0  0
127128  1  0  0  0  0
127129  1  0  0  0  0
127130  1  0  0  0  0
130131  1  0  0  0  0
130132  1  0  0  0  0
130133  1  0  0  0  0
133134  1  0  0  0  0
133135  1  0  0  0  0
133136  1  0  0  0  0
136137  1  0  0  0  0
136138  1  0  0  0  0
136139  1  0  0  0  0
139140  1  0  0  0  0
139141  1  0  0  0  0
141142  1  0  0  0  0
142139  1  0  0  0  0
142143  1  0  0  0  0
142144  1  0  0  0  0
144145  1  0  0  0  0
144146  1  0  0  0  0
144147  1  0  0  0  0
147148  1  0  0  0  0
147149  1  0  0  0  0
149150  1  0  0  0  0
150147  1  0  0  0  0
150151  1  0  0  0  0
150152  1  0  0  0  0
152153  1  0  0  0  0
152154  1  0  0  0  0
152155  1  0  0  0  0
155156  1  0  0  0  0
155157  1  0  0  0  0
155158  1  0  0  0  0
158159  1  0  0  0  0
158160  1  0  0  0  0
158161  1  0  0  0  0
161162  1  0  0  0  0
161163  1  0  0  0  0
161164  1  0  0  0  0
164165  1  0  0  0  0
164166  1  0  0  0  0
164167  1  0  0  0  0
M  END
> <ChemID>
201590

> <source_casrn>
8013-07-8

> <CAS>
8013-07-8

> <SMILES>
CCCCCC1OC1CC2OC2CCCCCCCC(=O)OCC(COC(=O)CCCCCCCC3OC3CC4OC4CCCCC)OC(=O)CCCCCCCC5OC5CC6OC6CCCCC

> <NAME>


> <preferred_name>


> <iupac>


> <MPID>
101365

> <dsstox_substance_id>
DTXSID1027687

> <Canonical_QSARr>
CCCCCC1OC1CC1OC1CCCCCCCC(=O)OC(COC(=O)CCCCCCCC1OC1CC1OC1CCCCC)COC(=O)CCCCCCCC1OC1CC1OC1CCCCC

> <InChI_Code_QSARr>
InChI=1S/C57H98O12/c1-4-7-19-28-43-49(64-43)37-52-46(67-52)31-22-13-10-16-25-34-55(58)61-40-42(63-57(60)36-27-18-12-15-24-33-48-54(69-48)39-51-45(66-51)30-21-9-6-3)41-62-56(59)35-26-17-11-14-23-32-47-53(68-47)38-50-44(65-50)29-20-8-5-2/h42-54H,4-41H2,1-3H3

> <InChI Key_QSARr>
JJGBFZZXKPWGCW-UHFFFAOYSA-N

> <Salt_Solvent>


> <Ready_Biodeg>
1.0

$$$$
201594
  -INDIGO-08031722522D

 27 26  0  0  0  0  0  0  0  0999 V2000
    5.5425    0.0000    0.0000 C   0  0  0  0  0  0  0  0  0  0  0  0
    6.9282   -0.8000    0.0000 H   0  0  0  0  0  0  0  0  0  0  0  0
    6.9282    0.8000    0.0000 H   0  0  0  0  0  0  0  0  0  0  0  0
    5.5425   -1.6000    0.0000 H   0  0  0  0  0  0  0  0  0  0  0  0
    4.1570    0.8000    0.0000 C   0  0  0  0  0  0  0  0  0  0  0  0
    3.5446    2.2782    0.0000 H   0  0  0  0  0  0  0  0  0  0  0  0
    4.7692    2.2782    0.0000 H   0  0  0  0  0  0  0  0  0  0  0  0
    2.7713    0.0000    0.0000 C   0  0  0  0  0  0  0  0  0  0  0  0
    3.3836   -1.4782    0.0000 H   0  0  0  0  0  0  0  0  0  0  0  0
    2.1589   -1.4782    0.0000 H   0  0  0  0  0  0  0  0  0  0  0  0
    1.3856    0.8000    0.0000 C   0  0  0  0  0  0  0  0  0  0  0  0
    0.7734    2.2782    0.0000 H   0  0  0  0  0  0  0  0  0  0  0  0
    1.9979    2.2782    0.0000 H   0  0  0  0  0  0  0  0  0  0  0  0
    0.0001    0.0000    0.0000 C   0  0  0  0  0  0  0  0  0  0  0  0
    0.6122   -1.4782    0.0000 H   0  0  0  0  0  0  0  0  0  0  0  0
   -0.6123   -1.4782    0.0000 H   0  0  0  0  0  0  0  0  0  0  0  0
   -1.3856    0.8000    0.0000 C   0  0  0  0  0  0  0  0  0  0  0  0
   -1.9980    2.2782    0.0000 H   0  0  0  0  0  0  0  0  0  0  0  0
   -0.7733    2.2782    0.0000 H   0  0  0  0  0  0  0  0  0  0  0  0
   -2.7713    0.0000    0.0000 C   0  0  0  0  0  0  0  0  0  0  0  0
   -1.9714   -1.3856    0.0000 H   0  0  0  0  0  0  0  0  0  0  0  0
   -4.1569   -0.8000    0.0000 C   0  0  0  0  0  0  0  0  0  0  0  0
   -5.5426   -1.6000    0.0000 H   0  0  0  0  0  0  0  0  0  0  0  0
   -5.5426    0.0000    0.0000 H   0  0  0  0  0  0  0  0  0  0  0  0
   -4.1569   -2.4000    0.0000 H   0  0  0  0  0  0  0  0  0  0  0  0
   -3.5713    1.3856    0.0000 O   0  0  0  0  0  0  0  0  0  0  0  0
   -5.1713    1.3856    0.0000 H   0  0  0  0  0  0  0  0  0  0  0  0
  1  2  1  0  0  0  0
  1  3  1  0  0  0  0
  1  4  1  0  0  0  0
  1  5  1  0  0  0  0
  5  6  1  0  0  0  0
  5  7  1  0  0  0  0
  5  8  1  0  0  0  0
  8  9  1  0  0  0  0
  8 10  1  0  0  0  0
  8 11  1  0  0  0  0
 11 12  1  0  0  0  0
 11 13  1  0  0  0  0
 11 14  1  0  0  0  0
 14 15  1  0  0  0  0
 14 16  1  0  0  0  0
 14 17  1  0  0  0  0
 17 18  1  0  0  0  0
 17 19  1  0  0  0  0
 17 20  1  0  0  0  0
 20 21  1  0  0  0  0
 20 22  1  0  0  0  0
 22 23  1  0  0  0  0
 22 24  1  0  0  0  0
 22 25  1  0  0  0  0
 20 26  1  0  0  0  0
 26 27  1  0  0  0  0
M  END
> <ChemID>
201594

> <source_casrn>
123-96-6

> <CAS>
123-96-6

> <SMILES>
CCCCCCC(C)O

> <NAME>


> <preferred_name>
2-Octanol

> <iupac>
octan-2-ol

> <MPID>
101367

> <dsstox_substance_id>
DTXSID0027014

> <Canonical_QSARr>
CCCCCCC(C)O

> <InChI_Code_QSARr>
InChI=1S/C8H18O/c1-3-4-5-6-7-8(2)9/h8-9H,3-7H2,1-2H3

> <InChI Key_QSARr>
SJWFXCIHNDVPSH-UHFFFAOYSA-N

> <Salt_Solvent>


> <Ready_Biodeg>
1.0

$$$$
201610
  -INDIGO-08031722522D

 74 73  0  0  0  0  0  0  0  0999 V2000
    6.9283    0.8000    0.0000 C   0  0  0  0  0  0  0  0  0  0  0  0
    8.3138    1.6000    0.0000 H   0  0  0  0  0  0  0  0  0  0  0  0
    8.3138    0.0000    0.0000 H   0  0  0  0  0  0  0  0  0  0  0  0
    6.9283    2.4000    0.0000 H   0  0  0  0  0  0  0  0  0  0  0  0
    5.5428    0.0000    0.0000 C   0  0  0  0  0  0  0  0  0  0  0  0
    4.9303   -1.4782    0.0000 H   0  0  0  0  0  0  0  0  0  0  0  0
    6.1548   -1.4782    0.0000 H   0  0  0  0  0  0  0  0  0  0  0  0
    4.1567    0.8000    0.0000 C   0  0  0  0  0  0  0  0  0  0  0  0
    4.7693    2.2782    0.0000 H   0  0  0  0  0  0  0  0  0  0  0  0
    3.5448    2.2782    0.0000 H   0  0  0  0  0  0  0  0  0  0  0  0
    2.7712    0.0000    0.0000 C   0  0  0  0  0  0  0  0  0  0  0  0
    2.1592   -1.4782    0.0000 H   0  0  0  0  0  0  0  0  0  0  0  0
    3.3838   -1.4782    0.0000 H   0  0  0  0  0  0  0  0  0  0  0  0
    1.3857    0.8000    0.0000 C   0  0  0  0  0  0  0  0  0  0  0  0
    1.9977    2.2782    0.0000 H   0  0  0  0  0  0  0  0  0  0  0  0
    0.7732    2.2782    0.0000 H   0  0  0  0  0  0  0  0  0  0  0  0
    0.0002    0.0000    0.0000 C   0  0  0  0  0  0  0  0  0  0  0  0
   -0.6124   -1.4782    0.0000 H   0  0  0  0  0  0  0  0  0  0  0  0
    0.6122   -1.4782    0.0000 H   0  0  0  0  0  0  0  0  0  0  0  0
   -1.3859    0.8000    0.0000 C   0  0  0  0  0  0  0  0  0  0  0  0
   -0.7733    2.2782    0.0000 H   0  0  0  0  0  0  0  0  0  0  0  0
   -1.9979    2.2782    0.0000 H   0  0  0  0  0  0  0  0  0  0  0  0
   -2.7714    0.0000    0.0000 C   0  0  0  0  0  0  0  0  0  0  0  0
   -3.3834   -1.4782    0.0000 H   0  0  0  0  0  0  0  0  0  0  0  0
   -2.1589   -1.4782    0.0000 H   0  0  0  0  0  0  0  0  0  0  0  0
   -4.1569    0.8000    0.0000 C   0  0  0  0  0  0  0  0  0  0  0  0
   -3.5444    2.2782    0.0000 H   0  0  0  0  0  0  0  0  0  0  0  0
   -4.7695    2.2782    0.0000 H   0  0  0  0  0  0  0  0  0  0  0  0
   -5.5424    0.0000    0.0000 C   0  0  0  0  0  0  0  0  0  0  0  0
   -6.1550   -1.4782    0.0000 H   0  0  0  0  0  0  0  0  0  0  0  0
   -4.9305   -1.4782    0.0000 H   0  0  0  0  0  0  0  0  0  0  0  0
   -6.9279    0.8000    0.0000 C   0  0  0  0  0  0  0  0  0  0  0  0
   -6.3160    2.2782    0.0000 H   0  0  0  0  0  0  0  0  0  0  0  0
   -7.5405    2.2782    0.0000 H   0  0  0  0  0  0  0  0  0  0  0  0
   -8.3140    0.0000    0.0000 C   0  0  0  0  0  0  0  0  0  0  0  0
   -8.3140   -1.6000    0.0000 O   0  0  0  0  0  0  0  0  0  0  0  0
   -9.6995    0.8000    0.0000 O   0  0  0  0  0  0  0  0  0  0  0  0
  -11.0851    0.0000    0.0000 O   0  0  0  0  0  0  0  0  0  0  0  0
  -12.4706    0.8000    0.0000 C   0  0  0  0  0  0  0  0  0  0  0  0
  -12.4706    2.4000    0.0000 O   0  0  0  0  0  0  0  0  0  0  0  0
  -13.8567    0.0000    0.0000 C   0  0  0  0  0  0  0  0  0  0  0  0
  -14.4686   -1.4782    0.0000 H   0  0  0  0  0  0  0  0  0  0  0  0
  -13.2441   -1.4782    0.0000 H   0  0  0  0  0  0  0  0  0  0  0  0
  -15.2422    0.8000    0.0000 C   0  0  0  0  0  0  0  0  0  0  0  0
  -14.6296    2.2782    0.0000 H   0  0  0  0  0  0  0  0  0  0  0  0
  -15.8542    2.2782    0.0000 H   0  0  0  0  0  0  0  0  0  0  0  0
  -16.6277    0.0000    0.0000 C   0  0  0  0  0  0  0  0  0  0  0  0
  -17.2402   -1.4782    0.0000 H   0  0  0  0  0  0  0  0  0  0  0  0
  -16.0151   -1.4782    0.0000 H   0  0  0  0  0  0  0  0  0  0  0  0
  -18.0132    0.8000    0.0000 C   0  0  0  0  0  0  0  0  0  0  0  0
  -17.4012    2.2782    0.0000 H   0  0  0  0  0  0  0  0  0  0  0  0
  -18.6258    2.2782    0.0000 H   0  0  0  0  0  0  0  0  0  0  0  0
  -19.3987    0.0000    0.0000 C   0  0  0  0  0  0  0  0  0  0  0  0
  -20.0113   -1.4782    0.0000 H   0  0  0  0  0  0  0  0  0  0  0  0
  -18.7867   -1.4782    0.0000 H   0  0  0  0  0  0  0  0  0  0  0  0
  -20.7848    0.8000    0.0000 C   0  0  0  0  0  0  0  0  0  0  0  0
  -20.1723    2.2782    0.0000 H   0  0  0  0  0  0  0  0  0  0  0  0
  -21.3968    2.2782    0.0000 H   0  0  0  0  0  0  0  0  0  0  0  0
  -22.1703    0.0000    0.0000 C   0  0  0  0  0  0  0  0  0  0  0  0
  -22.7823   -1.4782    0.0000 H   0  0  0  0  0  0  0  0  0  0  0  0
  -21.5578   -1.4782    0.0000 H   0  0  0  0  0  0  0  0  0  0  0  0
  -23.5558    0.8000    0.0000 C   0  0  0  0  0  0  0  0  0  0  0  0
  -22.9438    2.2782    0.0000 H   0  0  0  0  0  0  0  0  0  0  0  0
  -24.1684    2.2782    0.0000 H   0  0  0  0  0  0  0  0  0  0  0  0
  -24.9413    0.0000    0.0000 C   0  0  0  0  0  0  0  0  0  0  0  0
  -25.5539   -1.4782    0.0000 H   0  0  0  0  0  0  0  0  0  0  0  0
  -24.3294   -1.4782    0.0000 H   0  0  0  0  0  0  0  0  0  0  0  0
  -26.3274    0.8000    0.0000 C   0  0  0  0  0  0  0  0  0  0  0  0
  -25.7149    2.2782    0.0000 H   0  0  0  0  0  0  0  0  0  0  0  0
  -26.9394    2.2782    0.0000 H   0  0  0  0  0  0  0  0  0  0  0  0
  -27.7129    0.0000    0.0000 C   0  0  0  0  0  0  0  0  0  0  0  0
  -29.0985   -0.8000    0.0000 H   0  0  0  0  0  0  0  0  0  0  0  0
  -29.0985    0.8000    0.0000 H   0  0  0  0  0  0  0  0  0  0  0  0
  -27.7129   -1.6000    0.0000 H   0  0  0  0  0  0  0  0  0  0  0  0
  1  2  1  0  0  0  0
  1  3  1  0  0  0  0
  1  4  1  0  0  0  0
  1  5  1  0  0  0  0
  5  6  1  0  0  0  0
  5  7  1  0  0  0  0
  5  8  1  0  0  0  0
  8  9  1  0  0  0  0
  8 10  1  0  0  0  0
  8 11  1  0  0  0  0
 11 12  1  0  0  0  0
 11 13  1  0  0  0  0
 11 14  1  0  0  0  0
 14 15  1  0  0  0  0
 14 16  1  0  0  0  0
 14 17  1  0  0  0  0
 17 18  1  0  0  0  0
 17 19  1  0  0  0  0
 17 20  1  0  0  0  0
 20 21  1  0  0  0  0
 20 22  1  0  0  0  0
 20 23  1  0  0  0  0
 23 24  1  0  0  0  0
 23 25  1  0  0  0  0
 23 26  1  0  0  0  0
 26 27  1  0  0  0  0
 26 28  1  0  0  0  0
 26 29  1  0  0  0  0
 29 30  1  0  0  0  0
 29 31  1  0  0  0  0
 29 32  1  0  0  0  0
 32 33  1  0  0  0  0
 32 34  1  0  0  0  0
 32 35  1  0  0  0  0
 35 36  2  0  0  0  0
 35 37  1  0  0  0  0
 37 38  1  0  0  0  0
 38 39  1  0  0  0  0
 39 40  2  0  0  0  0
 39 41  1  0  0  0  0
 41 42  1  0  0  0  0
 41 43  1  0  0  0  0
 41 44  1  0  0  0  0
 44 45  1  0  0  0  0
 44 46  1  0  0  0  0
 44 47  1  0  0  0  0
 47 48  1  0  0  0  0
 47 49  1  0  0  0  0
 47 50  1  0  0  0  0
 50 51  1  0  0  0  0
 50 52  1  0  0  0  0
 50 53  1  0  0  0  0
 53 54  1  0  0  0  0
 53 55  1  0  0  0  0
 53 56  1  0  0  0  0
 56 57  1  0  0  0  0
 56 58  1  0  0  0  0
 56 59  1  0  0  0  0
 59 60  1  0  0  0  0
 59 61  1  0  0  0  0
 59 62  1  0  0  0  0
 62 63  1  0  0  0  0
 62 64  1  0  0  0  0
 62 65  1  0  0  0  0
 65 66  1  0  0  0  0
 65 67  1  0  0  0  0
 65 68  1  0  0  0  0
 68 69  1  0  0  0  0
 68 70  1  0  0  0  0
 68 71  1  0  0  0  0
 71 72  1  0  0  0  0
 71 73  1  0  0  0  0
 71 74  1  0  0  0  0
M  END
> <ChemID>
201610

> <source_casrn>
105-74-8

> <CAS>
105-74-8

> <SMILES>
CCCCCCCCCCCC(=O)OOC(=O)CCCCCCCCCCC

> <NAME>


> <preferred_name>
Peroxide, bis(1-oxododecyl)

> <iupac>
dodecanoyl dodecaneperoxoate

> <MPID>
101373

> <dsstox_substance_id>
DTXSID1059319

> <Canonical_QSARr>
CCCCCCCCCCCC(=O)OOC(=O)CCCCCCCCCCC

> <InChI_Code_QSARr>
InChI=1S/C24H46O4/c1-3-5-7-9-11-13-15-17-19-21-23(25)27-28-24(26)22-20-18-16-14-12-10-8-6-4-2/h3-22H2,1-2H3

> <InChI Key_QSARr>
YIVJZNGAASQVEM-UHFFFAOYSA-N

> <Salt_Solvent>


> <Ready_Biodeg>
1.0

$$$$
201615
  -INDIGO-08031722522D

 70 70  0  0  0  0  0  0  0  0999 V2000
   25.9180    4.6911    0.0000 C   0  0  0  0  0  0  0  0  0  0  0  0
   27.1072    5.7617    0.0000 H   0  0  0  0  0  0  0  0  0  0  0  0
   27.4399    4.1966    0.0000 H   0  0  0  0  0  0  0  0  0  0  0  0
   25.5854    6.2562    0.0000 H   0  0  0  0  0  0  0  0  0  0  0  0
   24.7294    3.6205    0.0000 C   0  0  0  0  0  0  0  0  0  0  0  0
   24.4377    2.0473    0.0000 H   0  0  0  0  0  0  0  0  0  0  0  0
   25.6354    2.3020    0.0000 H   0  0  0  0  0  0  0  0  0  0  0  0
   23.2075    4.1150    0.0000 C   0  0  0  0  0  0  0  0  0  0  0  0
   23.4992    5.6882    0.0000 H   0  0  0  0  0  0  0  0  0  0  0  0
   22.3010    5.4336    0.0000 H   0  0  0  0  0  0  0  0  0  0  0  0
   22.0184    3.0444    0.0000 C   0  0  0  0  0  0  0  0  0  0  0  0
   21.7267    1.4712    0.0000 H   0  0  0  0  0  0  0  0  0  0  0  0
   22.9249    1.7257    0.0000 H   0  0  0  0  0  0  0  0  0  0  0  0
   20.4965    3.5388    0.0000 C   0  0  0  0  0  0  0  0  0  0  0  0
   20.7882    5.1120    0.0000 H   0  0  0  0  0  0  0  0  0  0  0  0
   19.5905    4.8575    0.0000 H   0  0  0  0  0  0  0  0  0  0  0  0
   19.3078    2.4682    0.0000 C   0  0  0  0  0  0  0  0  0  0  0  0
   19.0162    0.8949    0.0000 H   0  0  0  0  0  0  0  0  0  0  0  0
   20.2139    1.1496    0.0000 H   0  0  0  0  0  0  0  0  0  0  0  0
   17.7860    2.9626    0.0000 C   0  0  0  0  0  0  0  0  0  0  0  0
   18.0777    4.5359    0.0000 H   0  0  0  0  0  0  0  0  0  0  0  0
   16.8800    4.2812    0.0000 H   0  0  0  0  0  0  0  0  0  0  0  0
   16.5968    1.8921    0.0000 C   0  0  0  0  0  0  0  0  0  0  0  0
   16.3057    0.3188    0.0000 H   0  0  0  0  0  0  0  0  0  0  0  0
   17.5033    0.5734    0.0000 H   0  0  0  0  0  0  0  0  0  0  0  0
   15.0755    2.3864    0.0000 C   0  0  0  0  0  0  0  0  0  0  0  0
   15.3671    3.9596    0.0000 H   0  0  0  0  0  0  0  0  0  0  0  0
   14.1690    3.7051    0.0000 H   0  0  0  0  0  0  0  0  0  0  0  0
   13.8863    1.3158    0.0000 C   0  0  0  0  0  0  0  0  0  0  0  0
   13.5946   -0.2574    0.0000 H   0  0  0  0  0  0  0  0  0  0  0  0
   14.7923   -0.0028    0.0000 H   0  0  0  0  0  0  0  0  0  0  0  0
   12.3645    1.8103    0.0000 C   0  0  0  0  0  0  0  0  0  0  0  0
   12.6561    3.3835    0.0000 H   0  0  0  0  0  0  0  0  0  0  0  0
   11.4585    3.1288    0.0000 H   0  0  0  0  0  0  0  0  0  0  0  0
   11.1758    0.7397    0.0000 C   0  0  0  0  0  0  0  0  0  0  0  0
   10.8841   -0.8335    0.0000 H   0  0  0  0  0  0  0  0  0  0  0  0
   12.0818   -0.5789    0.0000 H   0  0  0  0  0  0  0  0  0  0  0  0
    9.6539    1.2342    0.0000 C   0  0  0  0  0  0  0  0  0  0  0  0
    9.9456    2.8072    0.0000 H   0  0  0  0  0  0  0  0  0  0  0  0
    8.7474    2.5527    0.0000 H   0  0  0  0  0  0  0  0  0  0  0  0
    8.4648    0.1634    0.0000 C   0  0  0  0  0  0  0  0  0  0  0  0
    8.1731   -1.4096    0.0000 H   0  0  0  0  0  0  0  0  0  0  0  0
    9.3713   -1.1551    0.0000 H   0  0  0  0  0  0  0  0  0  0  0  0
    6.9429    0.6579    0.0000 C   0  0  0  0  0  0  0  0  0  0  0  0
    7.2346    2.2311    0.0000 H   0  0  0  0  0  0  0  0  0  0  0  0
    6.0369    1.9765    0.0000 H   0  0  0  0  0  0  0  0  0  0  0  0
    5.7543   -0.4127    0.0000 C   0  0  0  0  0  0  0  0  0  0  0  0
    6.0869   -1.9777    0.0000 O   0  0  0  0  0  0  0  0  0  0  0  0
    4.2324    0.0818    0.0000 O   0  0  0  0  0  0  0  0  0  0  0  0
    3.0432   -0.9888    0.0000 C   0  0  0  0  0  0  0  0  0  0  0  0
    2.7516   -2.5620    0.0000 H   0  0  0  0  0  0  0  0  0  0  0  0
    3.9497   -2.3075    0.0000 H   0  0  0  0  0  0  0  0  0  0  0  0
    1.5219   -0.4945    0.0000 C   0  0  0  0  0  0  0  0  0  0  0  0
    1.0271   -2.0161    0.0000 H   0  0  0  0  0  0  0  0  0  0  0  0
    2.0162    1.0273    0.0000 O   0  0  0  0  0  0  0  0  0  0  0  0
    3.5810    1.3600    0.0000 H   0  0  0  0  0  0  0  0  0  0  0  0
    0.0000    0.0000    0.0000 C   0  0  0  0  0  0  0  0  0  0  0  0
    0.6509    1.4617    0.0000 H   0  0  0  0  0  0  0  0  0  0  0  0
   -0.3326   -1.5650    0.0000 O   0  0  0  0  0  0  0  0  0  0  0  0
   -1.9240   -1.7323    0.0000 C   0  0  0  0  0  0  0  0  0  0  0  0
   -1.5914   -3.2973    0.0000 H   0  0  0  0  0  0  0  0  0  0  0  0
   -3.4454   -2.2267    0.0000 H   0  0  0  0  0  0  0  0  0  0  0  0
   -2.5749   -0.2705    0.0000 C   0  0  0  0  0  0  0  0  0  0  0  0
   -3.5149    1.0238    0.0000 H   0  0  0  0  0  0  0  0  0  0  0  0
   -3.9602   -1.0706    0.0000 O   0  0  0  0  0  0  0  0  0  0  0  0
   -5.3460   -0.2705    0.0000 H   0  0  0  0  0  0  0  0  0  0  0  0
   -1.3857    0.8000    0.0000 C   0  0  0  0  0  0  0  0  0  0  0  0
   -0.4452    2.0944    0.0000 H   0  0  0  0  0  0  0  0  0  0  0  0
   -2.5749    1.8706    0.0000 O   0  0  0  0  0  0  0  0  0  0  0  0
   -2.2422    3.4357    0.0000 H   0  0  0  0  0  0  0  0  0  0  0  0
  1  2  1  0  0  0  0
  1  3  1  0  0  0  0
  1  4  1  0  0  0  0
  1  5  1  0  0  0  0
  5  6  1  0  0  0  0
  5  7  1  0  0  0  0
  5  8  1  0  0  0  0
  8  9  1  0  0  0  0
  8 10  1  0  0  0  0
  8 11  1  0  0  0  0
 11 12  1  0  0  0  0
 11 13  1  0  0  0  0
 11 14  1  0  0  0  0
 14 15  1  0  0  0  0
 14 16  1  0  0  0  0
 14 17  1  0  0  0  0
 17 18  1  0  0  0  0
 17 19  1  0  0  0  0
 17 20  1  0  0  0  0
 20 21  1  0  0  0  0
 20 22  1  0  0  0  0
 20 23  1  0  0  0  0
 23 24  1  0  0  0  0
 23 25  1  0  0  0  0
 23 26  1  0  0  0  0
 26 27  1  0  0  0  0
 26 28  1  0  0  0  0
 26 29  1  0  0  0  0
 29 30  1  0  0  0  0
 29 31  1  0  0  0  0
 29 32  1  0  0  0  0
 32 33  1  0  0  0  0
 32 34  1  0  0  0  0
 32 35  1  0  0  0  0
 35 36  1  0  0  0  0
 35 37  1  0  0  0  0
 35 38  1  0  0  0  0
 38 39  1  0  0  0  0
 38 40  1  0  0  0  0
 38 41  1  0  0  0  0
 41 42  1  0  0  0  0
 41 43  1  0  0  0  0
 41 44  1  0  0  0  0
 44 45  1  0  0  0  0
 44 46  1  0  0  0  0
 44 47  1  0  0  0  0
 47 48  2  0  0  0  0
 47 49  1  0  0  0  0
 49 50  1  0  0  0  0
 50 51  1  0  0  0  0
 50 52  1  0  0  0  0
 50 53  1  0  0  0  0
 53 54  1  0  0  0  0
 53 55  1  0  0  0  0
 55 56  1  0  0  0  0
 53 57  1  0  0  0  0
 57 58  1  0  0  0  0
 57 59  1  0  0  0  0
 59 60  1  0  0  0  0
 60 61  1  0  0  0  0
 60 62  1  0  0  0  0
 60 63  1  0  0  0  0
 63 64  1  0  0  0  0
 63 65  1  0  0  0  0
 65 66  1  0  0  0  0
 63 67  1  0  0  0  0
 67 57  1  0  0  0  0
 67 68  1  0  0  0  0
 67 69  1  0  0  0  0
 69 70  1  0  0  0  0
M  END
> <ChemID>
201615

> <source_casrn>
26266-57-9

> <CAS>
5050-91-9

> <SMILES>
CCCCCCCCCCCCCCCC(=O)OC[C@@H](O)[C@H]1OC[C@H](O)[C@H]1O

> <NAME>


> <preferred_name>
Sorbitan monohexadecanoate

> <iupac>
1,4-anhydro-6-O-hexadecanoyl-D-glucitol

> <MPID>
101376

> <dsstox_substance_id>
DTXSID90873164

> <Canonical_QSARr>
CCCCCCCCCCCCCCCC(=O)OCC(O)C1OCC(O)C1O

> <InChI_Code_QSARr>
InChI=1S/C22H42O6/c1-2-3-4-5-6-7-8-9-10-11-12-13-14-15-20(25)27-17-19(24)22-21(26)18(23)16-28-22/h18-19,21-24,26H,2-17H2,1H3

> <InChI Key_QSARr>
IYFATESGLOUGBX-UHFFFAOYSA-N

> <Salt_Solvent>


> <Ready_Biodeg>
1.0

$$$$
201623
  -INDIGO-08031722522D

 61 61  0  0  0  0  0  0  0  0999 V2000
   24.5626    4.3311    0.0000 C   0  0  0  0  0  0  0  0  0  0  0  0
   25.7884    5.3595    0.0000 H   0  0  0  0  0  0  0  0  0  0  0  0
   26.0661    3.7838    0.0000 H   0  0  0  0  0  0  0  0  0  0  0  0
   24.2848    5.9068    0.0000 H   0  0  0  0  0  0  0  0  0  0  0  0
   23.3368    3.3026    0.0000 C   0  0  0  0  0  0  0  0  0  0  0  0
   24.1967    1.9532    0.0000 H   0  0  0  0  0  0  0  0  0  0  0  0
   22.9905    1.7405    0.0000 H   0  0  0  0  0  0  0  0  0  0  0  0
   21.8332    3.8499    0.0000 C   0  0  0  0  0  0  0  0  0  0  0  0
   20.9737    5.1993    0.0000 H   0  0  0  0  0  0  0  0  0  0  0  0
   22.1800    5.4119    0.0000 H   0  0  0  0  0  0  0  0  0  0  0  0
   20.6079    2.8214    0.0000 C   0  0  0  0  0  0  0  0  0  0  0  0
   21.4673    1.4719    0.0000 H   0  0  0  0  0  0  0  0  0  0  0  0
   20.2616    1.2593    0.0000 H   0  0  0  0  0  0  0  0  0  0  0  0
   19.1043    3.3686    0.0000 C   0  0  0  0  0  0  0  0  0  0  0  0
   18.2444    4.7181    0.0000 H   0  0  0  0  0  0  0  0  0  0  0  0
   19.4506    4.9307    0.0000 H   0  0  0  0  0  0  0  0  0  0  0  0
   17.8785    2.3401    0.0000 C   0  0  0  0  0  0  0  0  0  0  0  0
   18.7384    0.9907    0.0000 H   0  0  0  0  0  0  0  0  0  0  0  0
   17.5322    0.7781    0.0000 H   0  0  0  0  0  0  0  0  0  0  0  0
   16.3750    2.8874    0.0000 C   0  0  0  0  0  0  0  0  0  0  0  0
   15.5155    4.2368    0.0000 H   0  0  0  0  0  0  0  0  0  0  0  0
   16.7212    4.4495    0.0000 H   0  0  0  0  0  0  0  0  0  0  0  0
   15.1496    1.8589    0.0000 C   0  0  0  0  0  0  0  0  0  0  0  0
   16.0091    0.5095    0.0000 H   0  0  0  0  0  0  0  0  0  0  0  0
   14.8033    0.2968    0.0000 H   0  0  0  0  0  0  0  0  0  0  0  0
   13.6460    2.4062    0.0000 C   0  0  0  0  0  0  0  0  0  0  0  0
   12.7861    3.7556    0.0000 H   0  0  0  0  0  0  0  0  0  0  0  0
   13.9923    3.9683    0.0000 H   0  0  0  0  0  0  0  0  0  0  0  0
   12.4202    1.3777    0.0000 C   0  0  0  0  0  0  0  0  0  0  0  0
   13.2797    0.0283    0.0000 H   0  0  0  0  0  0  0  0  0  0  0  0
   12.0740   -0.1844    0.0000 H   0  0  0  0  0  0  0  0  0  0  0  0
   10.9167    1.9250    0.0000 C   0  0  0  0  0  0  0  0  0  0  0  0
   10.0572    3.2744    0.0000 H   0  0  0  0  0  0  0  0  0  0  0  0
   11.2630    3.4870    0.0000 H   0  0  0  0  0  0  0  0  0  0  0  0
    9.6909    0.8964    0.0000 C   0  0  0  0  0  0  0  0  0  0  0  0
   10.5508   -0.4530    0.0000 H   0  0  0  0  0  0  0  0  0  0  0  0
    9.3446   -0.6656    0.0000 H   0  0  0  0  0  0  0  0  0  0  0  0
    8.1873    1.4436    0.0000 C   0  0  0  0  0  0  0  0  0  0  0  0
    7.3279    2.7932    0.0000 H   0  0  0  0  0  0  0  0  0  0  0  0
    8.5336    3.0058    0.0000 H   0  0  0  0  0  0  0  0  0  0  0  0
    6.9620    0.4152    0.0000 C   0  0  0  0  0  0  0  0  0  0  0  0
    7.8215   -0.9342    0.0000 H   0  0  0  0  0  0  0  0  0  0  0  0
    6.6157   -1.1468    0.0000 H   0  0  0  0  0  0  0  0  0  0  0  0
    5.4584    0.9624    0.0000 C   0  0  0  0  0  0  0  0  0  0  0  0
    4.5985    2.3119    0.0000 H   0  0  0  0  0  0  0  0  0  0  0  0
    5.8047    2.5246    0.0000 H   0  0  0  0  0  0  0  0  0  0  0  0
    4.2326   -0.0660    0.0000 C   0  0  0  0  0  0  0  0  0  0  0  0
    5.0926   -1.4154    0.0000 H   0  0  0  0  0  0  0  0  0  0  0  0
    3.8863   -1.6281    0.0000 H   0  0  0  0  0  0  0  0  0  0  0  0
    2.7291    0.4813    0.0000 C   0  0  0  0  0  0  0  0  0  0  0  0
    1.8696    1.8307    0.0000 H   0  0  0  0  0  0  0  0  0  0  0  0
    3.0754    2.0432    0.0000 H   0  0  0  0  0  0  0  0  0  0  0  0
    1.5037   -0.5472    0.0000 C   0  0  0  0  0  0  0  0  0  0  0  0
    2.3632   -1.8967    0.0000 H   0  0  0  0  0  0  0  0  0  0  0  0
    1.1570   -2.1093    0.0000 H   0  0  0  0  0  0  0  0  0  0  0  0
    0.0002    0.0001    0.0000 C   0  0  0  0  0  0  0  0  0  0  0  0
    0.2779    1.5757    0.0000 H   0  0  0  0  0  0  0  0  0  0  0  0
   -1.6000    0.0001    0.0000 C   0  0  0  0  0  0  0  0  0  0  0  0
   -1.8777    1.5757    0.0000 H   0  0  0  0  0  0  0  0  0  0  0  0
   -3.1035   -0.5472    0.0000 H   0  0  0  0  0  0  0  0  0  0  0  0
   -0.8001   -1.3857    0.0000 O   0  0  0  0  0  0  0  0  0  0  0  0
  1  2  1  0  0  0  0
  1  3  1  0  0  0  0
  1  4  1  0  0  0  0
  1  5  1  0  0  0  0
  5  6  1  0  0  0  0
  5  7  1  0  0  0  0
  5  8  1  0  0  0  0
  8  9  1  0  0  0  0
  8 10  1  0  0  0  0
  8 11  1  0  0  0  0
 11 12  1  0  0  0  0
 11 13  1  0  0  0  0
 11 14  1  0  0  0  0
 14 15  1  0  0  0  0
 14 16  1  0  0  0  0
 14 17  1  0  0  0  0
 17 18  1  0  0  0  0
 17 19  1  0  0  0  0
 17 20  1  0  0  0  0
 20 21  1  0  0  0  0
 20 22  1  0  0  0  0
 20 23  1  0  0  0  0
 23 24  1  0  0  0  0
 23 25  1  0  0  0  0
 23 26  1  0  0  0  0
 26 27  1  0  0  0  0
 26 28  1  0  0  0  0
 26 29  1  0  0  0  0
 29 30  1  0  0  0  0
 29 31  1  0  0  0  0
 29 32  1  0  0  0  0
 32 33  1  0  0  0  0
 32 34  1  0  0  0  0
 32 35  1  0  0  0  0
 35 36  1  0  0  0  0
 35 37  1  0  0  0  0
 35 38  1  0  0  0  0
 38 39  1  0  0  0  0
 38 40  1  0  0  0  0
 38 41  1  0  0  0  0
 41 42  1  0  0  0  0
 41 43  1  0  0  0  0
 41 44  1  0  0  0  0
 44 45  1  0  0  0  0
 44 46  1  0  0  0  0
 44 47  1  0  0  0  0
 47 48  1  0  0  0  0
 47 49  1  0  0  0  0
 47 50  1  0  0  0  0
 50 51  1  0  0  0  0
 50 52  1  0  0  0  0
 50 53  1  0  0  0  0
 53 54  1  0  0  0  0
 53 55  1  0  0  0  0
 53 56  1  0  0  0  0
 56 57  1  0  0  0  0
 56 58  1  0  0  0  0
 58 59  1  0  0  0  0
 58 60  1  0  0  0  0
 58 61  1  0  0  0  0
 61 56  1  0  0  0  0
M  END
> <ChemID>
201623

> <source_casrn>


> <CAS>
19780-16-6

> <SMILES>
CCCCCCCCCCCCCCCCCCC1CO1

> <NAME>


> <preferred_name>


> <iupac>


> <MPID>
101382

> <dsstox_substance_id>


> <Canonical_QSARr>
CCCCCCCCCCCCCCCCCCC1CO1

> <InChI_Code_QSARr>
InChI=1S/C20H40O/c1-2-3-4-5-6-7-8-9-10-11-12-13-14-15-16-17-18-20-19-21-20/h20H,2-19H2,1H3

> <InChI Key_QSARr>
BHZBVWCLMYQFQX-UHFFFAOYSA-N

> <Salt_Solvent>


> <Ready_Biodeg>
1.0

$$$$
201631
  -INDIGO-08031722522D

100100  0  0  0  0  0  0  0  0999 V2000
   34.6409   -0.8001    0.0000 C   0  0  0  0  0  0  0  0  0  0  0  0
   36.0267   -1.6000    0.0000 H   0  0  0  0  0  0  0  0  0  0  0  0
   36.0267    0.0000    0.0000 H   0  0  0  0  0  0  0  0  0  0  0  0
   34.6409   -2.4001    0.0000 H   0  0  0  0  0  0  0  0  0  0  0  0
   33.2556    0.0000    0.0000 C   0  0  0  0  0  0  0  0  0  0  0  0
   33.8677    1.4782    0.0000 H   0  0  0  0  0  0  0  0  0  0  0  0
   32.6430    1.4782    0.0000 H   0  0  0  0  0  0  0  0  0  0  0  0
   31.8698   -0.8001    0.0000 C   0  0  0  0  0  0  0  0  0  0  0  0
   31.2572   -2.2783    0.0000 H   0  0  0  0  0  0  0  0  0  0  0  0
   32.4819   -2.2783    0.0000 H   0  0  0  0  0  0  0  0  0  0  0  0
   30.4840    0.0000    0.0000 C   0  0  0  0  0  0  0  0  0  0  0  0
   31.0966    1.4782    0.0000 H   0  0  0  0  0  0  0  0  0  0  0  0
   29.8720    1.4782    0.0000 H   0  0  0  0  0  0  0  0  0  0  0  0
   29.0982   -0.8001    0.0000 C   0  0  0  0  0  0  0  0  0  0  0  0
   28.4862   -2.2783    0.0000 H   0  0  0  0  0  0  0  0  0  0  0  0
   29.7108   -2.2783    0.0000 H   0  0  0  0  0  0  0  0  0  0  0  0
   27.7130    0.0000    0.0000 C   0  0  0  0  0  0  0  0  0  0  0  0
   28.3250    1.4782    0.0000 H   0  0  0  0  0  0  0  0  0  0  0  0
   27.1004    1.4782    0.0000 H   0  0  0  0  0  0  0  0  0  0  0  0
   26.3272   -0.8001    0.0000 C   0  0  0  0  0  0  0  0  0  0  0  0
   25.7152   -2.2783    0.0000 H   0  0  0  0  0  0  0  0  0  0  0  0
   26.9392   -2.2783    0.0000 H   0  0  0  0  0  0  0  0  0  0  0  0
   24.9414    0.0000    0.0000 C   0  0  0  0  0  0  0  0  0  0  0  0
   25.5540    1.4782    0.0000 H   0  0  0  0  0  0  0  0  0  0  0  0
   24.3294    1.4782    0.0000 H   0  0  0  0  0  0  0  0  0  0  0  0
   23.5562   -0.8001    0.0000 C   0  0  0  0  0  0  0  0  0  0  0  0
   22.9436   -2.2783    0.0000 H   0  0  0  0  0  0  0  0  0  0  0  0
   24.1682   -2.2783    0.0000 H   0  0  0  0  0  0  0  0  0  0  0  0
   22.1704    0.0000    0.0000 C   0  0  0  0  0  0  0  0  0  0  0  0
   22.7824    1.4782    0.0000 H   0  0  0  0  0  0  0  0  0  0  0  0
   21.5578    1.4782    0.0000 H   0  0  0  0  0  0  0  0  0  0  0  0
   20.7846   -0.8001    0.0000 C   0  0  0  0  0  0  0  0  0  0  0  0
   20.1725   -2.2783    0.0000 H   0  0  0  0  0  0  0  0  0  0  0  0
   21.3966   -2.2783    0.0000 H   0  0  0  0  0  0  0  0  0  0  0  0
   19.3988    0.0000    0.0000 C   0  0  0  0  0  0  0  0  0  0  0  0
   20.0114    1.4782    0.0000 H   0  0  0  0  0  0  0  0  0  0  0  0
   18.7867    1.4782    0.0000 H   0  0  0  0  0  0  0  0  0  0  0  0
   18.0136   -0.8001    0.0000 C   0  0  0  0  0  0  0  0  0  0  0  0
   17.4009   -2.2783    0.0000 H   0  0  0  0  0  0  0  0  0  0  0  0
   18.6256   -2.2783    0.0000 H   0  0  0  0  0  0  0  0  0  0  0  0
   16.6278    0.0000    0.0000 C   0  0  0  0  0  0  0  0  0  0  0  0
   17.2398    1.4782    0.0000 H   0  0  0  0  0  0  0  0  0  0  0  0
   16.0151    1.4782    0.0000 H   0  0  0  0  0  0  0  0  0  0  0  0
   15.2419   -0.8001    0.0000 C   0  0  0  0  0  0  0  0  0  0  0  0
   14.6299   -2.2783    0.0000 H   0  0  0  0  0  0  0  0  0  0  0  0
   15.8546   -2.2783    0.0000 H   0  0  0  0  0  0  0  0  0  0  0  0
   13.8561    0.0000    0.0000 C   0  0  0  0  0  0  0  0  0  0  0  0
   14.4688    1.4782    0.0000 H   0  0  0  0  0  0  0  0  0  0  0  0
   13.2441    1.4782    0.0000 H   0  0  0  0  0  0  0  0  0  0  0  0
   12.4709   -0.8001    0.0000 C   0  0  0  0  0  0  0  0  0  0  0  0
   11.8583   -2.2783    0.0000 H   0  0  0  0  0  0  0  0  0  0  0  0
   13.0830   -2.2783    0.0000 H   0  0  0  0  0  0  0  0  0  0  0  0
   11.0851    0.0000    0.0000 C   0  0  0  0  0  0  0  0  0  0  0  0
   11.6972    1.4782    0.0000 H   0  0  0  0  0  0  0  0  0  0  0  0
   10.4731    1.4782    0.0000 H   0  0  0  0  0  0  0  0  0  0  0  0
    9.6993   -0.8001    0.0000 O   0  0  0  0  0  0  0  0  0  0  0  0
    8.3141    0.0000    0.0000 C   0  0  0  0  0  0  0  0  0  0  0  0
    8.3141    1.6000    0.0000 O   0  0  0  0  0  0  0  0  0  0  0  0
    6.9283   -0.8001    0.0000 C   0  0  0  0  0  0  0  0  0  0  0  0
    6.3157   -2.2783    0.0000 H   0  0  0  0  0  0  0  0  0  0  0  0
    7.5403   -2.2783    0.0000 H   0  0  0  0  0  0  0  0  0  0  0  0
    5.5425    0.0000    0.0000 C   0  0  0  0  0  0  0  0  0  0  0  0
    6.1551    1.4782    0.0000 H   0  0  0  0  0  0  0  0  0  0  0  0
    4.9305    1.4782    0.0000 H   0  0  0  0  0  0  0  0  0  0  0  0
    4.1567   -0.8001    0.0000 C   0  0  0  0  0  0  0  0  0  0  0  0
    4.1567   -2.4001    0.0000 C   0  0  0  0  0  0  0  0  0  0  0  0
    5.5425   -3.2000    0.0000 H   0  0  0  0  0  0  0  0  0  0  0  0
    2.7715   -3.2000    0.0000 C   0  0  0  0  0  0  0  0  0  0  0  0
    2.7715   -4.8000    0.0000 C   0  0  0  0  0  0  0  0  0  0  0  0
    2.7715   -6.4000    0.0000 C   0  0  0  0  0  0  0  0  0  0  0  0
    2.7715   -8.0000    0.0000 H   0  0  0  0  0  0  0  0  0  0  0  0
    1.5456   -7.4285    0.0000 H   0  0  0  0  0  0  0  0  0  0  0  0
    3.9967   -7.4285    0.0000 H   0  0  0  0  0  0  0  0  0  0  0  0
    4.3712   -4.8000    0.0000 C   0  0  0  0  0  0  0  0  0  0  0  0
    5.9472   -4.5222    0.0000 H   0  0  0  0  0  0  0  0  0  0  0  0
    5.3997   -6.0257    0.0000 H   0  0  0  0  0  0  0  0  0  0  0  0
    3.8243   -6.3036    0.0000 H   0  0  0  0  0  0  0  0  0  0  0  0
    1.1712   -4.8000    0.0000 C   0  0  0  0  0  0  0  0  0  0  0  0
   -0.4042   -4.5222    0.0000 H   0  0  0  0  0  0  0  0  0  0  0  0
    0.1427   -6.0257    0.0000 H   0  0  0  0  0  0  0  0  0  0  0  0
    1.7186   -6.3036    0.0000 H   0  0  0  0  0  0  0  0  0  0  0  0
    1.3857   -2.4001    0.0000 C   0  0  0  0  0  0  0  0  0  0  0  0
   -0.0001   -3.2000    0.0000 O   0  0  0  0  0  0  0  0  0  0  0  0
   -1.3859   -2.4001    0.0000 H   0  0  0  0  0  0  0  0  0  0  0  0
    1.3857   -0.8001    0.0000 C   0  0  0  0  0  0  0  0  0  0  0  0
   -0.0001    0.0000    0.0000 C   0  0  0  0  0  0  0  0  0  0  0  0
   -1.2260    1.0285    0.0000 C   0  0  0  0  0  0  0  0  0  0  0  0
   -2.4512    2.0570    0.0000 H   0  0  0  0  0  0  0  0  0  0  0  0
   -2.8014    0.7507    0.0000 H   0  0  0  0  0  0  0  0  0  0  0  0
   -1.2260    2.6285    0.0000 H   0  0  0  0  0  0  0  0  0  0  0  0
    1.0284    1.2256    0.0000 C   0  0  0  0  0  0  0  0  0  0  0  0
    2.0570    2.4514    0.0000 H   0  0  0  0  0  0  0  0  0  0  0  0
    0.4810    2.7292    0.0000 H   0  0  0  0  0  0  0  0  0  0  0  0
   -0.4753    1.7729    0.0000 H   0  0  0  0  0  0  0  0  0  0  0  0
   -1.0287   -1.2257    0.0000 C   0  0  0  0  0  0  0  0  0  0  0  0
   -2.6284   -1.2257    0.0000 H   0  0  0  0  0  0  0  0  0  0  0  0
   -1.8285    0.1600    0.0000 H   0  0  0  0  0  0  0  0  0  0  0  0
    0.5473   -1.5036    0.0000 H   0  0  0  0  0  0  0  0  0  0  0  0
    2.7715    0.0000    0.0000 C   0  0  0  0  0  0  0  0  0  0  0  0
    2.7715    1.6000    0.0000 H   0  0  0  0  0  0  0  0  0  0  0  0
  1  2  1  0  0  0  0
  1  3  1  0  0  0  0
  1  4  1  0  0  0  0
  1  5  1  0  0  0  0
  5  6  1  0  0  0  0
  5  7  1  0  0  0  0
  5  8  1  0  0  0  0
  8  9  1  0  0  0  0
  8 10  1  0  0  0  0
  8 11  1  0  0  0  0
 11 12  1  0  0  0  0
 11 13  1  0  0  0  0
 11 14  1  0  0  0  0
 14 15  1  0  0  0  0
 14 16  1  0  0  0  0
 14 17  1  0  0  0  0
 17 18  1  0  0  0  0
 17 19  1  0  0  0  0
 17 20  1  0  0  0  0
 20 21  1  0  0  0  0
 20 22  1  0  0  0  0
 20 23  1  0  0  0  0
 23 24  1  0  0  0  0
 23 25  1  0  0  0  0
 23 26  1  0  0  0  0
 26 27  1  0  0  0  0
 26 28  1  0  0  0  0
 26 29  1  0  0  0  0
 29 30  1  0  0  0  0
 29 31  1  0  0  0  0
 29 32  1  0  0  0  0
 32 33  1  0  0  0  0
 32 34  1  0  0  0  0
 32 35  1  0  0  0  0
 35 36  1  0  0  0  0
 35 37  1  0  0  0  0
 35 38  1  0  0  0  0
 38 39  1  0  0  0  0
 38 40  1  0  0  0  0
 38 41  1  0  0  0  0
 41 42  1  0  0  0  0
 41 43  1  0  0  0  0
 41 44  1  0  0  0  0
 44 45  1  0  0  0  0
 44 46  1  0  0  0  0
 44 47  1  0  0  0  0
 47 48  1  0  0  0  0
 47 49  1  0  0  0  0
 47 50  1  0  0  0  0
 50 51  1  0  0  0  0
 50 52  1  0  0  0  0
 50 53  1  0  0  0  0
 53 54  1  0  0  0  0
 53 55  1  0  0  0  0
 53 56  1  0  0  0  0
 56 57  1  0  0  0  0
 57 58  2  0  0  0  0
 57 59  1  0  0  0  0
 59 60  1  0  0  0  0
 59 61  1  0  0  0  0
 59 62  1  0  0  0  0
 62 63  1  0  0  0  0
 62 64  1  0  0  0  0
 62 65  1  0  0  0  0
 65 66  1  0  0  0  0
 66 67  1  0  0  0  0
 66 68  2  0  0  0  0
 68 69  1  0  0  0  0
 69 70  1  0  0  0  0
 70 71  1  0  0  0  0
 70 72  1  0  0  0  0
 70 73  1  0  0  0  0
 69 74  1  0  0  0  0
 74 75  1  0  0  0  0
 74 76  1  0  0  0  0
 74 77  1  0  0  0  0
 69 78  1  0  0  0  0
 78 79  1  0  0  0  0
 78 80  1  0  0  0  0
 78 81  1  0  0  0  0
 68 82  1  0  0  0  0
 82 83  1  0  0  0  0
 83 84  1  0  0  0  0
 82 85  2  0  0  0  0
 85 86  1  0  0  0  0
 86 87  1  0  0  0  0
 87 88  1  0  0  0  0
 87 89  1  0  0  0  0
 87 90  1  0  0  0  0
 86 91  1  0  0  0  0
 91 92  1  0  0  0  0
 91 93  1  0  0  0  0
 91 94  1  0  0  0  0
 86 95  1  0  0  0  0
 95 96  1  0  0  0  0
 95 97  1  0  0  0  0
 95 98  1  0  0  0  0
 85 99  1  0  0  0  0
 99 65  2  0  0  0  0
 99100  1  0  0  0  0
M  END
> <ChemID>
201631

> <source_casrn>
2082-79-3

> <CAS>
2082-79-3

> <SMILES>
CCCCCCCCCCCCCCCCCCOC(=O)CCc1cc(c(O)c(c1)C(C)(C)C)C(C)(C)C

> <NAME>


> <preferred_name>
Octadecyl 3-(3,5-di-tert-butyl-4-hydroxyphenyl)propionate

> <iupac>
octadecyl 3-(3,5-di-tert-butyl-4-hydroxyphenyl)propanoate

> <MPID>
101386

> <dsstox_substance_id>
DTXSID8027456

> <Canonical_QSARr>
CCCCCCCCCCCCCCCCCCOC(=O)CCc1cc(c(O)c(c1)C(C)(C)C)C(C)(C)C

> <InChI_Code_QSARr>
InChI=1S/C35H62O3/c1-8-9-10-11-12-13-14-15-16-17-18-19-20-21-22-23-26-38-32(36)25-24-29-27-30(34(2,3)4)33(37)31(28-29)35(5,6)7/h27-28,37H,8-26H2,1-7H3

> <InChI Key_QSARr>
SSDSCDGVMJFTEQ-UHFFFAOYSA-N

> <Salt_Solvent>


> <Ready_Biodeg>
0.0

$$$$
201635
  -INDIGO-08031722522D

 58 58  0  0  0  0  0  0  0  0999 V2000
    9.6994    0.8000    0.0000 C   0  0  0  0  0  0  0  0  0  0  0  0
   11.0851    1.6000    0.0000 H   0  0  0  0  0  0  0  0  0  0  0  0
   11.0851   -0.0000    0.0000 H   0  0  0  0  0  0  0  0  0  0  0  0
    9.6994    2.4000    0.0000 H   0  0  0  0  0  0  0  0  0  0  0  0
    8.3141   -0.0000    0.0000 C   0  0  0  0  0  0  0  0  0  0  0  0
    7.7017   -1.4782    0.0000 H   0  0  0  0  0  0  0  0  0  0  0  0
    8.9259   -1.4782    0.0000 H   0  0  0  0  0  0  0  0  0  0  0  0
    6.9283    0.8000    0.0000 C   0  0  0  0  0  0  0  0  0  0  0  0
    7.5406    2.2782    0.0000 H   0  0  0  0  0  0  0  0  0  0  0  0
    6.3160    2.2782    0.0000 H   0  0  0  0  0  0  0  0  0  0  0  0
    5.5426   -0.0000    0.0000 C   0  0  0  0  0  0  0  0  0  0  0  0
    4.9302   -1.4782    0.0000 H   0  0  0  0  0  0  0  0  0  0  0  0
    6.1549   -1.4782    0.0000 H   0  0  0  0  0  0  0  0  0  0  0  0
    4.1568    0.8000    0.0000 C   0  0  0  0  0  0  0  0  0  0  0  0
    4.7691    2.2782    0.0000 H   0  0  0  0  0  0  0  0  0  0  0  0
    3.5445    2.2782    0.0000 H   0  0  0  0  0  0  0  0  0  0  0  0
    2.7715   -0.0000    0.0000 C   0  0  0  0  0  0  0  0  0  0  0  0
    2.1592   -1.4782    0.0000 H   0  0  0  0  0  0  0  0  0  0  0  0
    3.3834   -1.4782    0.0000 H   0  0  0  0  0  0  0  0  0  0  0  0
    1.3857    0.8000    0.0000 C   0  0  0  0  0  0  0  0  0  0  0  0
    1.9981    2.2782    0.0000 H   0  0  0  0  0  0  0  0  0  0  0  0
    0.7734    2.2782    0.0000 H   0  0  0  0  0  0  0  0  0  0  0  0
    0.0000   -0.0000    0.0000 C   0  0  0  0  0  0  0  0  0  0  0  0
   -0.6123   -1.4782    0.0000 H   0  0  0  0  0  0  0  0  0  0  0  0
    0.6123   -1.4782    0.0000 H   0  0  0  0  0  0  0  0  0  0  0  0
   -1.3857    0.8000    0.0000 C   0  0  0  0  0  0  0  0  0  0  0  0
   -0.7734    2.2782    0.0000 H   0  0  0  0  0  0  0  0  0  0  0  0
   -1.9981    2.2782    0.0000 H   0  0  0  0  0  0  0  0  0  0  0  0
   -2.7711   -0.0000    0.0000 C   0  0  0  0  0  0  0  0  0  0  0  0
   -3.3834   -1.4782    0.0000 H   0  0  0  0  0  0  0  0  0  0  0  0
   -2.1592   -1.4782    0.0000 H   0  0  0  0  0  0  0  0  0  0  0  0
   -4.1568    0.8000    0.0000 C   0  0  0  0  0  0  0  0  0  0  0  0
   -3.5445    2.2782    0.0000 H   0  0  0  0  0  0  0  0  0  0  0  0
   -4.7691    2.2782    0.0000 H   0  0  0  0  0  0  0  0  0  0  0  0
   -5.5426   -0.0000    0.0000 C   0  0  0  0  0  0  0  0  0  0  0  0
   -6.1549   -1.4782    0.0000 H   0  0  0  0  0  0  0  0  0  0  0  0
   -4.9302   -1.4782    0.0000 H   0  0  0  0  0  0  0  0  0  0  0  0
   -6.9283    0.8000    0.0000 C   0  0  0  0  0  0  0  0  0  0  0  0
   -6.3160    2.2782    0.0000 H   0  0  0  0  0  0  0  0  0  0  0  0
   -7.5406    2.2782    0.0000 H   0  0  0  0  0  0  0  0  0  0  0  0
   -8.3136   -0.0000    0.0000 C   0  0  0  0  0  0  0  0  0  0  0  0
   -8.9260   -1.4782    0.0000 H   0  0  0  0  0  0  0  0  0  0  0  0
   -7.7017   -1.4782    0.0000 H   0  0  0  0  0  0  0  0  0  0  0  0
   -9.6994    0.8000    0.0000 C   0  0  0  0  0  0  0  0  0  0  0  0
   -9.0871    2.2782    0.0000 H   0  0  0  0  0  0  0  0  0  0  0  0
  -10.3117    2.2782    0.0000 H   0  0  0  0  0  0  0  0  0  0  0  0
  -11.0851   -0.0000    0.0000 C   0  0  0  0  0  0  0  0  0  0  0  0
  -11.0851   -1.6000    0.0000 C   0  0  0  0  0  0  0  0  0  0  0  0
   -9.6994   -2.4000    0.0000 H   0  0  0  0  0  0  0  0  0  0  0  0
  -12.4709   -2.4000    0.0000 C   0  0  0  0  0  0  0  0  0  0  0  0
  -12.4709   -4.0000    0.0000 H   0  0  0  0  0  0  0  0  0  0  0  0
  -13.8562   -1.6000    0.0000 C   0  0  0  0  0  0  0  0  0  0  0  0
  -15.2419   -2.4000    0.0000 H   0  0  0  0  0  0  0  0  0  0  0  0
  -13.8562   -0.0000    0.0000 C   0  0  0  0  0  0  0  0  0  0  0  0
  -15.2419    0.8000    0.0000 O   0  0  0  0  0  0  0  0  0  0  0  0
  -16.6277   -0.0000    0.0000 H   0  0  0  0  0  0  0  0  0  0  0  0
  -12.4709    0.8000    0.0000 C   0  0  0  0  0  0  0  0  0  0  0  0
  -12.4709    2.4000    0.0000 H   0  0  0  0  0  0  0  0  0  0  0  0
  1  2  1  0  0  0  0
  1  3  1  0  0  0  0
  1  4  1  0  0  0  0
  1  5  1  0  0  0  0
  5  6  1  0  0  0  0
  5  7  1  0  0  0  0
  5  8  1  0  0  0  0
  8  9  1  0  0  0  0
  8 10  1  0  0  0  0
  8 11  1  0  0  0  0
 11 12  1  0  0  0  0
 11 13  1  0  0  0  0
 11 14  1  0  0  0  0
 14 15  1  0  0  0  0
 14 16  1  0  0  0  0
 14 17  1  0  0  0  0
 17 18  1  0  0  0  0
 17 19  1  0  0  0  0
 17 20  1  0  0  0  0
 20 21  1  0  0  0  0
 20 22  1  0  0  0  0
 20 23  1  0  0  0  0
 23 24  1  0  0  0  0
 23 25  1  0  0  0  0
 23 26  1  0  0  0  0
 26 27  1  0  0  0  0
 26 28  1  0  0  0  0
 26 29  1  0  0  0  0
 29 30  1  0  0  0  0
 29 31  1  0  0  0  0
 29 32  1  0  0  0  0
 32 33  1  0  0  0  0
 32 34  1  0  0  0  0
 32 35  1  0  0  0  0
 35 36  1  0  0  0  0
 35 37  1  0  0  0  0
 35 38  1  0  0  0  0
 38 39  1  0  0  0  0
 38 40  1  0  0  0  0
 38 41  1  0  0  0  0
 41 42  1  0  0  0  0
 41 43  1  0  0  0  0
 41 44  1  0  0  0  0
 44 45  1  0  0  0  0
 44 46  1  0  0  0  0
 44 47  1  0  0  0  0
 47 48  1  0  0  0  0
 48 49  1  0  0  0  0
 48 50  2  0  0  0  0
 50 51  1  0  0  0  0
 50 52  1  0  0  0  0
 52 53  1  0  0  0  0
 52 54  2  0  0  0  0
 54 55  1  0  0  0  0
 55 56  1  0  0  0  0
 54 57  1  0  0  0  0
 57 47  2  0  0  0  0
 57 58  1  0  0  0  0
M  END
> <ChemID>
201635

> <source_casrn>
501-24-6

> <CAS>
501-24-6

> <SMILES>
CCCCCCCCCCCCCCCc1cccc(O)c1

> <NAME>


> <preferred_name>
Phenol, 3-pentadecyl-

> <iupac>
3-Pentadecylphenol

> <MPID>
101388

> <dsstox_substance_id>
DTXSID9060108

> <Canonical_QSARr>
CCCCCCCCCCCCCCCc1cccc(O)c1

> <InChI_Code_QSARr>
InChI=1S/C21H36O/c1-2-3-4-5-6-7-8-9-10-11-12-13-14-16-20-17-15-18-21(22)19-20/h15,17-19,22H,2-14,16H2,1H3

> <InChI Key_QSARr>
PTFIPECGHSYQNR-UHFFFAOYSA-N

> <Salt_Solvent>


> <Ready_Biodeg>
1.0

$$$$
201639
  -INDIGO-08031722522D

 38 37  0  0  0  0  0  0  0  0999 V2000
    6.9282   -0.8000    0.0000 C   0  0  0  0  0  0  0  0  0  0  0  0
    8.3138   -1.6000    0.0000 H   0  0  0  0  0  0  0  0  0  0  0  0
    8.3138    0.0000    0.0000 H   0  0  0  0  0  0  0  0  0  0  0  0
    6.9282   -2.4000    0.0000 H   0  0  0  0  0  0  0  0  0  0  0  0
    5.5426    0.0000    0.0000 C   0  0  0  0  0  0  0  0  0  0  0  0
    6.1548    1.4782    0.0000 H   0  0  0  0  0  0  0  0  0  0  0  0
    4.9302    1.4782    0.0000 H   0  0  0  0  0  0  0  0  0  0  0  0
    4.1570   -0.8000    0.0000 C   0  0  0  0  0  0  0  0  0  0  0  0
    3.5446   -2.2782    0.0000 H   0  0  0  0  0  0  0  0  0  0  0  0
    4.7692   -2.2782    0.0000 H   0  0  0  0  0  0  0  0  0  0  0  0
    2.7712    0.0000    0.0000 C   0  0  0  0  0  0  0  0  0  0  0  0
    3.3836    1.4782    0.0000 H   0  0  0  0  0  0  0  0  0  0  0  0
    2.1590    1.4782    0.0000 H   0  0  0  0  0  0  0  0  0  0  0  0
    1.3856   -0.8000    0.0000 C   0  0  0  0  0  0  0  0  0  0  0  0
    0.7735   -2.2782    0.0000 H   0  0  0  0  0  0  0  0  0  0  0  0
    1.9980   -2.2782    0.0000 H   0  0  0  0  0  0  0  0  0  0  0  0
   -0.0000    0.0000    0.0000 C   0  0  0  0  0  0  0  0  0  0  0  0
    0.6124    1.4782    0.0000 H   0  0  0  0  0  0  0  0  0  0  0  0
   -0.6124    1.4782    0.0000 H   0  0  0  0  0  0  0  0  0  0  0  0
   -1.3856   -0.8000    0.0000 C   0  0  0  0  0  0  0  0  0  0  0  0
   -1.9980   -2.2782    0.0000 H   0  0  0  0  0  0  0  0  0  0  0  0
   -0.7732   -2.2782    0.0000 H   0  0  0  0  0  0  0  0  0  0  0  0
   -2.7712    0.0000    0.0000 C   0  0  0  0  0  0  0  0  0  0  0  0
   -2.1591    1.4782    0.0000 H   0  0  0  0  0  0  0  0  0  0  0  0
   -3.3836    1.4782    0.0000 H   0  0  0  0  0  0  0  0  0  0  0  0
   -4.1568   -0.8000    0.0000 C   0  0  0  0  0  0  0  0  0  0  0  0
   -4.7692   -2.2782    0.0000 H   0  0  0  0  0  0  0  0  0  0  0  0
   -3.5447   -2.2782    0.0000 H   0  0  0  0  0  0  0  0  0  0  0  0
   -5.5427    0.0000    0.0000 C   0  0  0  0  0  0  0  0  0  0  0  0
   -4.9303    1.4782    0.0000 H   0  0  0  0  0  0  0  0  0  0  0  0
   -6.1548    1.4782    0.0000 H   0  0  0  0  0  0  0  0  0  0  0  0
   -6.9283   -0.8000    0.0000 C   0  0  0  0  0  0  0  0  0  0  0  0
   -7.5404   -2.2782    0.0000 H   0  0  0  0  0  0  0  0  0  0  0  0
   -6.3159   -2.2782    0.0000 H   0  0  0  0  0  0  0  0  0  0  0  0
   -8.3139    0.0000    0.0000 C   0  0  0  0  0  0  0  0  0  0  0  0
   -9.6995    0.8000    0.0000 H   0  0  0  0  0  0  0  0  0  0  0  0
   -9.6995   -0.8000    0.0000 H   0  0  0  0  0  0  0  0  0  0  0  0
   -8.3139    1.6000    0.0000 Cl  0  0  0  0  0  0  0  0  0  0  0  0
  1  2  1  0  0  0  0
  1  3  1  0  0  0  0
  1  4  1  0  0  0  0
  1  5  1  0  0  0  0
  5  6  1  0  0  0  0
  5  7  1  0  0  0  0
  5  8  1  0  0  0  0
  8  9  1  0  0  0  0
  8 10  1  0  0  0  0
  8 11  1  0  0  0  0
 11 12  1  0  0  0  0
 11 13  1  0  0  0  0
 11 14  1  0  0  0  0
 14 15  1  0  0  0  0
 14 16  1  0  0  0  0
 14 17  1  0  0  0  0
 17 18  1  0  0  0  0
 17 19  1  0  0  0  0
 17 20  1  0  0  0  0
 20 21  1  0  0  0  0
 20 22  1  0  0  0  0
 20 23  1  0  0  0  0
 23 24  1  0  0  0  0
 23 25  1  0  0  0  0
 23 26  1  0  0  0  0
 26 27  1  0  0  0  0
 26 28  1  0  0  0  0
 26 29  1  0  0  0  0
 29 30  1  0  0  0  0
 29 31  1  0  0  0  0
 29 32  1  0  0  0  0
 32 33  1  0  0  0  0
 32 34  1  0  0  0  0
 32 35  1  0  0  0  0
 35 36  1  0  0  0  0
 35 37  1  0  0  0  0
 35 38  1  0  0  0  0
M  END
> <ChemID>
201639

> <source_casrn>
112-52-7

> <CAS>
112-52-7

> <SMILES>
CCCCCCCCCCCCCl

> <NAME>


> <preferred_name>
1-Chlorododecane

> <iupac>
1-chlorododecane

> <MPID>
101390

> <dsstox_substance_id>
DTXSID0025492

> <Canonical_QSARr>
CCCCCCCCCCCCCl

> <InChI_Code_QSARr>
InChI=1S/C12H25Cl/c1-2-3-4-5-6-7-8-9-10-11-12-13/h2-12H2,1H3

> <InChI Key_QSARr>
YAYNEUUHHLGGAH-UHFFFAOYSA-N

> <Salt_Solvent>


> <Ready_Biodeg>
1.0

$$$$
201647
  -INDIGO-08031722522D

 67 67  0  0  0  0  0  0  0  0999 V2000
   17.8283    2.6114    0.0000 C   0  0  0  0  0  0  0  0  0  0  0  0
   18.6284    3.9969    0.0000 H   0  0  0  0  0  0  0  0  0  0  0  0
   19.4285    2.6114    0.0000 H   0  0  0  0  0  0  0  0  0  0  0  0
   17.0283    3.9969    0.0000 H   0  0  0  0  0  0  0  0  0  0  0  0
   17.0283    1.2257    0.0000 C   0  0  0  0  0  0  0  0  0  0  0  0
   17.2372   -0.3606    0.0000 H   0  0  0  0  0  0  0  0  0  0  0  0
   18.2977    0.2516    0.0000 H   0  0  0  0  0  0  0  0  0  0  0  0
   15.4286    1.2257    0.0000 C   0  0  0  0  0  0  0  0  0  0  0  0
   15.2197    2.8119    0.0000 H   0  0  0  0  0  0  0  0  0  0  0  0
   14.1591    2.1998    0.0000 H   0  0  0  0  0  0  0  0  0  0  0  0
   14.6285   -0.1600    0.0000 C   0  0  0  0  0  0  0  0  0  0  0  0
   14.8374   -1.7463    0.0000 H   0  0  0  0  0  0  0  0  0  0  0  0
   15.8980   -1.1339    0.0000 H   0  0  0  0  0  0  0  0  0  0  0  0
   13.0284   -0.1600    0.0000 C   0  0  0  0  0  0  0  0  0  0  0  0
   12.8195    1.4264    0.0000 H   0  0  0  0  0  0  0  0  0  0  0  0
   11.7589    0.8141    0.0000 H   0  0  0  0  0  0  0  0  0  0  0  0
   12.2283   -1.5455    0.0000 C   0  0  0  0  0  0  0  0  0  0  0  0
   12.4372   -3.1320    0.0000 H   0  0  0  0  0  0  0  0  0  0  0  0
   13.4978   -2.5197    0.0000 H   0  0  0  0  0  0  0  0  0  0  0  0
   10.6286   -1.5455    0.0000 C   0  0  0  0  0  0  0  0  0  0  0  0
   10.4197    0.0407    0.0000 H   0  0  0  0  0  0  0  0  0  0  0  0
    9.3592   -0.5716    0.0000 H   0  0  0  0  0  0  0  0  0  0  0  0
    9.8286   -2.9313    0.0000 C   0  0  0  0  0  0  0  0  0  0  0  0
   10.0374   -4.5175    0.0000 H   0  0  0  0  0  0  0  0  0  0  0  0
   11.0980   -3.9054    0.0000 H   0  0  0  0  0  0  0  0  0  0  0  0
    8.2284   -2.9313    0.0000 C   0  0  0  0  0  0  0  0  0  0  0  0
    8.2982   -1.3328    0.0000 H   0  0  0  0  0  0  0  0  0  0  0  0
    7.1474   -1.7516    0.0000 H   0  0  0  0  0  0  0  0  0  0  0  0
    7.2002   -4.1569    0.0000 C   0  0  0  0  0  0  0  0  0  0  0  0
    7.9999   -5.5426    0.0000 C   0  0  0  0  0  0  0  0  0  0  0  0
    9.6000   -5.5426    0.0000 H   0  0  0  0  0  0  0  0  0  0  0  0
    7.2002   -6.9281    0.0000 C   0  0  0  0  0  0  0  0  0  0  0  0
    7.9999   -8.3138    0.0000 H   0  0  0  0  0  0  0  0  0  0  0  0
    5.6001   -6.9281    0.0000 C   0  0  0  0  0  0  0  0  0  0  0  0
    4.8000   -8.3138    0.0000 H   0  0  0  0  0  0  0  0  0  0  0  0
    4.8000   -5.5426    0.0000 C   0  0  0  0  0  0  0  0  0  0  0  0
    3.1999   -5.5426    0.0000 O   0  0  0  0  0  0  0  0  0  0  0  0
    2.3998   -6.9281    0.0000 H   0  0  0  0  0  0  0  0  0  0  0  0
    5.6001   -4.1569    0.0000 C   0  0  0  0  0  0  0  0  0  0  0  0
    4.8000   -2.7712    0.0000 C   0  0  0  0  0  0  0  0  0  0  0  0
    6.0695   -1.7973    0.0000 H   0  0  0  0  0  0  0  0  0  0  0  0
    5.0089   -1.1849    0.0000 H   0  0  0  0  0  0  0  0  0  0  0  0
    3.1999   -2.7712    0.0000 C   0  0  0  0  0  0  0  0  0  0  0  0
    1.9305   -3.7453    0.0000 H   0  0  0  0  0  0  0  0  0  0  0  0
    2.9910   -4.3577    0.0000 H   0  0  0  0  0  0  0  0  0  0  0  0
    2.3998   -1.3857    0.0000 C   0  0  0  0  0  0  0  0  0  0  0  0
    3.6693   -0.4116    0.0000 H   0  0  0  0  0  0  0  0  0  0  0  0
    2.6087    0.2008    0.0000 H   0  0  0  0  0  0  0  0  0  0  0  0
    0.8001   -1.3857    0.0000 C   0  0  0  0  0  0  0  0  0  0  0  0
   -0.4693   -2.3596    0.0000 H   0  0  0  0  0  0  0  0  0  0  0  0
    0.5912   -2.9720    0.0000 H   0  0  0  0  0  0  0  0  0  0  0  0
    0.0001    0.0000    0.0000 C   0  0  0  0  0  0  0  0  0  0  0  0
    1.2695    0.9741    0.0000 H   0  0  0  0  0  0  0  0  0  0  0  0
    0.2089    1.5863    0.0000 H   0  0  0  0  0  0  0  0  0  0  0  0
   -1.6000    0.0000    0.0000 C   0  0  0  0  0  0  0  0  0  0  0  0
   -2.8695   -0.9741    0.0000 H   0  0  0  0  0  0  0  0  0  0  0  0
   -1.8089   -1.5863    0.0000 H   0  0  0  0  0  0  0  0  0  0  0  0
   -2.4001    1.3857    0.0000 C   0  0  0  0  0  0  0  0  0  0  0  0
   -1.1307    2.3596    0.0000 H   0  0  0  0  0  0  0  0  0  0  0  0
   -2.1912    2.9720    0.0000 H   0  0  0  0  0  0  0  0  0  0  0  0
   -3.9998    1.3857    0.0000 C   0  0  0  0  0  0  0  0  0  0  0  0
   -5.2693    0.4116    0.0000 H   0  0  0  0  0  0  0  0  0  0  0  0
   -4.2087   -0.2008    0.0000 H   0  0  0  0  0  0  0  0  0  0  0  0
   -4.7999    2.7712    0.0000 C   0  0  0  0  0  0  0  0  0  0  0  0
   -5.5999    4.1569    0.0000 H   0  0  0  0  0  0  0  0  0  0  0  0
   -6.4000    2.7712    0.0000 H   0  0  0  0  0  0  0  0  0  0  0  0
   -3.9998    4.1569    0.0000 H   0  0  0  0  0  0  0  0  0  0  0  0
  1  2  1  0  0  0  0
  1  3  1  0  0  0  0
  1  4  1  0  0  0  0
  1  5  1  0  0  0  0
  5  6  1  0  0  0  0
  5  7  1  0  0  0  0
  5  8  1  0  0  0  0
  8  9  1  0  0  0  0
  8 10  1  0  0  0  0
  8 11  1  0  0  0  0
 11 12  1  0  0  0  0
 11 13  1  0  0  0  0
 11 14  1  0  0  0  0
 14 15  1  0  0  0  0
 14 16  1  0  0  0  0
 14 17  1  0  0  0  0
 17 18  1  0  0  0  0
 17 19  1  0  0  0  0
 17 20  1  0  0  0  0
 20 21  1  0  0  0  0
 20 22  1  0  0  0  0
 20 23  1  0  0  0  0
 23 24  1  0  0  0  0
 23 25  1  0  0  0  0
 23 26  1  0  0  0  0
 26 27  1  0  0  0  0
 26 28  1  0  0  0  0
 26 29  1  0  0  0  0
 29 30  1  0  0  0  0
 30 31  1  0  0  0  0
 30 32  2  0  0  0  0
 32 33  1  0  0  0  0
 32 34  1  0  0  0  0
 34 35  1  0  0  0  0
 34 36  2  0  0  0  0
 36 37  1  0  0  0  0
 37 38  1  0  0  0  0
 36 39  1  0  0  0  0
 39 29  2  0  0  0  0
 39 40  1  0  0  0  0
 40 41  1  0  0  0  0
 40 42  1  0  0  0  0
 40 43  1  0  0  0  0
 43 44  1  0  0  0  0
 43 45  1  0  0  0  0
 43 46  1  0  0  0  0
 46 47  1  0  0  0  0
 46 48  1  0  0  0  0
 46 49  1  0  0  0  0
 49 50  1  0  0  0  0
 49 51  1  0  0  0  0
 49 52  1  0  0  0  0
 52 53  1  0  0  0  0
 52 54  1  0  0  0  0
 52 55  1  0  0  0  0
 55 56  1  0  0  0  0
 55 57  1  0  0  0  0
 55 58  1  0  0  0  0
 58 59  1  0  0  0  0
 58 60  1  0  0  0  0
 58 61  1  0  0  0  0
 61 62  1  0  0  0  0
 61 63  1  0  0  0  0
 61 64  1  0  0  0  0
 64 65  1  0  0  0  0
 64 66  1  0  0  0  0
 64 67  1  0  0  0  0
M  END
> <ChemID>
201647

> <source_casrn>
1323-65-5

> <CAS>
1323-65-5

> <SMILES>
CCCCCCCCCc1cccc(O)c1CCCCCCCCC

> <NAME>


> <preferred_name>
Phenol, dinonyl-

> <iupac>
2,3-dinonylphenol

> <MPID>
101395

> <dsstox_substance_id>
DTXSID7027382

> <Canonical_QSARr>
CCCCCCCCCc1cccc(O)c1CCCCCCCCC

> <InChI_Code_QSARr>
InChI=1S/C24H42O/c1-3-5-7-9-11-13-15-18-22-19-17-21-24(25)23(22)20-16-14-12-10-8-6-4-2/h17,19,21,25H,3-16,18,20H2,1-2H3

> <InChI Key_QSARr>
JKTAIYGNOFSMCE-UHFFFAOYSA-N

> <Salt_Solvent>


> <Ready_Biodeg>
0.0

$$$$
201656
  -INDIGO-08031722522D

 72 73  0  0  0  0  0  0  0  0999 V2000
    5.2081    1.8957    0.0000 C   0  0  0  0  0  0  0  0  0  0  0  0
    6.2370    3.1213    0.0000 H   0  0  0  0  0  0  0  0  0  0  0  0
    6.7840    1.6179    0.0000 H   0  0  0  0  0  0  0  0  0  0  0  0
    4.6611    3.3992    0.0000 H   0  0  0  0  0  0  0  0  0  0  0  0
    4.1797    0.6700    0.0000 C   0  0  0  0  0  0  0  0  0  0  0  0
    5.2610   -0.5097    0.0000 H   0  0  0  0  0  0  0  0  0  0  0  0
    4.1100   -0.9284    0.0000 H   0  0  0  0  0  0  0  0  0  0  0  0
    2.6044    0.9479    0.0000 C   0  0  0  0  0  0  0  0  0  0  0  0
    1.5231    2.1274    0.0000 H   0  0  0  0  0  0  0  0  0  0  0  0
    2.6741    2.5463    0.0000 H   0  0  0  0  0  0  0  0  0  0  0  0
    1.5755   -0.2778    0.0000 C   0  0  0  0  0  0  0  0  0  0  0  0
    2.6568   -1.4575    0.0000 H   0  0  0  0  0  0  0  0  0  0  0  0
    1.5058   -1.8763    0.0000 H   0  0  0  0  0  0  0  0  0  0  0  0
    0.0001    0.0000    0.0000 C   0  0  0  0  0  0  0  0  0  0  0  0
   -1.0812    1.1796    0.0000 H   0  0  0  0  0  0  0  0  0  0  0  0
    0.0698    1.5985    0.0000 H   0  0  0  0  0  0  0  0  0  0  0  0
   -1.0283   -1.2256    0.0000 C   0  0  0  0  0  0  0  0  0  0  0  0
    0.0525   -2.4054    0.0000 H   0  0  0  0  0  0  0  0  0  0  0  0
   -1.0985   -2.8241    0.0000 H   0  0  0  0  0  0  0  0  0  0  0  0
   -2.6042   -0.9478    0.0000 C   0  0  0  0  0  0  0  0  0  0  0  0
   -3.6849    0.2318    0.0000 H   0  0  0  0  0  0  0  0  0  0  0  0
   -2.5345    0.6507    0.0000 H   0  0  0  0  0  0  0  0  0  0  0  0
   -3.6325   -2.1735    0.0000 C   0  0  0  0  0  0  0  0  0  0  0  0
   -2.5518   -3.3532    0.0000 H   0  0  0  0  0  0  0  0  0  0  0  0
   -3.7023   -3.7721    0.0000 H   0  0  0  0  0  0  0  0  0  0  0  0
   -5.2084   -1.8956    0.0000 C   0  0  0  0  0  0  0  0  0  0  0  0
   -5.7554   -0.3921    0.0000 C   0  0  0  0  0  0  0  0  0  0  0  0
   -4.7271    0.8335    0.0000 H   0  0  0  0  0  0  0  0  0  0  0  0
   -7.3313   -0.1143    0.0000 C   0  0  0  0  0  0  0  0  0  0  0  0
   -7.8783    1.3892    0.0000 H   0  0  0  0  0  0  0  0  0  0  0  0
   -8.3597   -1.3400    0.0000 C   0  0  0  0  0  0  0  0  0  0  0  0
   -9.9356   -1.0621    0.0000 N   0  0  0  0  0  0  0  0  0  0  0  0
  -10.2134    0.5136    0.0000 H   0  0  0  0  0  0  0  0  0  0  0  0
  -11.3212   -1.8621    0.0000 C   0  0  0  0  0  0  0  0  0  0  0  0
  -12.7067   -1.0621    0.0000 C   0  0  0  0  0  0  0  0  0  0  0  0
  -12.7067    0.5379    0.0000 H   0  0  0  0  0  0  0  0  0  0  0  0
  -14.0923   -1.8621    0.0000 C   0  0  0  0  0  0  0  0  0  0  0  0
  -15.4779   -1.0621    0.0000 H   0  0  0  0  0  0  0  0  0  0  0  0
  -14.0923   -3.4621    0.0000 C   0  0  0  0  0  0  0  0  0  0  0  0
  -15.4779   -4.2621    0.0000 C   0  0  0  0  0  0  0  0  0  0  0  0
  -14.8658   -5.7403    0.0000 H   0  0  0  0  0  0  0  0  0  0  0  0
  -16.0900   -5.7403    0.0000 H   0  0  0  0  0  0  0  0  0  0  0  0
  -16.8635   -3.4621    0.0000 C   0  0  0  0  0  0  0  0  0  0  0  0
  -17.4756   -1.9839    0.0000 H   0  0  0  0  0  0  0  0  0  0  0  0
  -16.2514   -1.9839    0.0000 H   0  0  0  0  0  0  0  0  0  0  0  0
  -18.2491   -4.2621    0.0000 C   0  0  0  0  0  0  0  0  0  0  0  0
  -17.6369   -5.7403    0.0000 H   0  0  0  0  0  0  0  0  0  0  0  0
  -18.8617   -5.7403    0.0000 H   0  0  0  0  0  0  0  0  0  0  0  0
  -19.6347   -3.4621    0.0000 C   0  0  0  0  0  0  0  0  0  0  0  0
  -20.2473   -1.9839    0.0000 H   0  0  0  0  0  0  0  0  0  0  0  0
  -19.0225   -1.9839    0.0000 H   0  0  0  0  0  0  0  0  0  0  0  0
  -21.0207   -4.2621    0.0000 C   0  0  0  0  0  0  0  0  0  0  0  0
  -20.4081   -5.7403    0.0000 H   0  0  0  0  0  0  0  0  0  0  0  0
  -21.6329   -5.7403    0.0000 H   0  0  0  0  0  0  0  0  0  0  0  0
  -22.4063   -3.4621    0.0000 C   0  0  0  0  0  0  0  0  0  0  0  0
  -23.0185   -1.9839    0.0000 H   0  0  0  0  0  0  0  0  0  0  0  0
  -21.7937   -1.9839    0.0000 H   0  0  0  0  0  0  0  0  0  0  0  0
  -23.7919   -4.2621    0.0000 C   0  0  0  0  0  0  0  0  0  0  0  0
  -23.1793   -5.7403    0.0000 H   0  0  0  0  0  0  0  0  0  0  0  0
  -24.4040   -5.7403    0.0000 H   0  0  0  0  0  0  0  0  0  0  0  0
  -25.1775   -3.4621    0.0000 C   0  0  0  0  0  0  0  0  0  0  0  0
  -26.5631   -2.6621    0.0000 H   0  0  0  0  0  0  0  0  0  0  0  0
  -26.5631   -4.2621    0.0000 H   0  0  0  0  0  0  0  0  0  0  0  0
  -25.1775   -1.8621    0.0000 H   0  0  0  0  0  0  0  0  0  0  0  0
  -12.7067   -4.2621    0.0000 C   0  0  0  0  0  0  0  0  0  0  0  0
  -12.7067   -5.8622    0.0000 H   0  0  0  0  0  0  0  0  0  0  0  0
  -11.3212   -3.4621    0.0000 C   0  0  0  0  0  0  0  0  0  0  0  0
   -9.9356   -4.2621    0.0000 H   0  0  0  0  0  0  0  0  0  0  0  0
   -7.8127   -2.8434    0.0000 C   0  0  0  0  0  0  0  0  0  0  0  0
   -8.8411   -4.0691    0.0000 H   0  0  0  0  0  0  0  0  0  0  0  0
   -6.2368   -3.1213    0.0000 C   0  0  0  0  0  0  0  0  0  0  0  0
   -5.6893   -4.6249    0.0000 H   0  0  0  0  0  0  0  0  0  0  0  0
  1  2  1  0  0  0  0
  1  3  1  0  0  0  0
  1  4  1  0  0  0  0
  1  5  1  0  0  0  0
  5  6  1  0  0  0  0
  5  7  1  0  0  0  0
  5  8  1  0  0  0  0
  8  9  1  0  0  0  0
  8 10  1  0  0  0  0
  8 11  1  0  0  0  0
 11 12  1  0  0  0  0
 11 13  1  0  0  0  0
 11 14  1  0  0  0  0
 14 15  1  0  0  0  0
 14 16  1  0  0  0  0
 14 17  1  0  0  0  0
 17 18  1  0  0  0  0
 17 19  1  0  0  0  0
 17 20  1  0  0  0  0
 20 21  1  0  0  0  0
 20 22  1  0  0  0  0
 20 23  1  0  0  0  0
 23 24  1  0  0  0  0
 23 25  1  0  0  0  0
 23 26  1  0  0  0  0
 26 27  1  0  0  0  0
 27 28  1  0  0  0  0
 27 29  2  0  0  0  0
 29 30  1  0  0  0  0
 29 31  1  0  0  0  0
 31 32  1  0  0  0  0
 32 33  1  0  0  0  0
 32 34  1  0  0  0  0
 34 35  1  0  0  0  0
 35 36  1  0  0  0  0
 35 37  2  0  0  0  0
 37 38  1  0  0  0  0
 37 39  1  0  0  0  0
 39 40  1  0  0  0  0
 40 41  1  0  0  0  0
 40 42  1  0  0  0  0
 40 43  1  0  0  0  0
 43 44  1  0  0  0  0
 43 45  1  0  0  0  0
 43 46  1  0  0  0  0
 46 47  1  0  0  0  0
 46 48  1  0  0  0  0
 46 49  1  0  0  0  0
 49 50  1  0  0  0  0
 49 51  1  0  0  0  0
 49 52  1  0  0  0  0
 52 53  1  0  0  0  0
 52 54  1  0  0  0  0
 52 55  1  0  0  0  0
 55 56  1  0  0  0  0
 55 57  1  0  0  0  0
 55 58  1  0  0  0  0
 58 59  1  0  0  0  0
 58 60  1  0  0  0  0
 58 61  1  0  0  0  0
 61 62  1  0  0  0  0
 61 63  1  0  0  0  0
 61 64  1  0  0  0  0
 39 65  2  0  0  0  0
 65 66  1  0  0  0  0
 65 67  1  0  0  0  0
 67 34  2  0  0  0  0
 67 68  1  0  0  0  0
 31 69  2  0  0  0  0
 69 70  1  0  0  0  0
 69 71  1  0  0  0  0
 71 26  2  0  0  0  0
 71 72  1  0  0  0  0
M  END
> <ChemID>
201656

> <source_casrn>
101-67-7

> <CAS>
101-67-7

> <SMILES>
CCCCCCCCc1ccc(Nc2ccc(CCCCCCCC)cc2)cc1

> <NAME>


> <preferred_name>
4,4'-Dioctyldiphenylamine

> <iupac>
4-octyl-N-(4-octylphenyl)aniline

> <MPID>
101397

> <dsstox_substance_id>
DTXSID3025170

> <Canonical_QSARr>
CCCCCCCCc1ccc(cc1)Nc1ccc(CCCCCCCC)cc1

> <InChI_Code_QSARr>
InChI=1S/C28H43N/c1-3-5-7-9-11-13-15-25-17-21-27(22-18-25)29-28-23-19-26(20-24-28)16-14-12-10-8-6-4-2/h17-24,29H,3-16H2,1-2H3

> <InChI Key_QSARr>
QAPVYZRWKDXNDK-UHFFFAOYSA-N

> <Salt_Solvent>


> <Ready_Biodeg>
0.0

$$$$
201664
  -INDIGO-08031722522D

 40 39  0  0  0  0  0  0  0  0999 V2000
    5.2326    2.1735    0.0000 C   0  0  0  0  0  0  0  0  0  0  0  0
    6.2610    3.3992    0.0000 H   0  0  0  0  0  0  0  0  0  0  0  0
    6.8083    1.8957    0.0000 H   0  0  0  0  0  0  0  0  0  0  0  0
    4.6853    3.6769    0.0000 H   0  0  0  0  0  0  0  0  0  0  0  0
    4.2041    0.9478    0.0000 C   0  0  0  0  0  0  0  0  0  0  0  0
    5.2850   -0.2319    0.0000 H   0  0  0  0  0  0  0  0  0  0  0  0
    4.1343   -0.6507    0.0000 H   0  0  0  0  0  0  0  0  0  0  0  0
    2.6285    1.2257    0.0000 C   0  0  0  0  0  0  0  0  0  0  0  0
    1.5475    2.4054    0.0000 H   0  0  0  0  0  0  0  0  0  0  0  0
    2.6983    2.8242    0.0000 H   0  0  0  0  0  0  0  0  0  0  0  0
    1.6000    0.0000    0.0000 C   0  0  0  0  0  0  0  0  0  0  0  0
    2.8693   -0.9739    0.0000 H   0  0  0  0  0  0  0  0  0  0  0  0
    1.8088   -1.5863    0.0000 H   0  0  0  0  0  0  0  0  0  0  0  0
    0.0001    0.0000    0.0000 N   0  0  0  0  0  0  0  0  0  0  0  0
   -0.8000    1.3856    0.0000 C   0  0  0  0  0  0  0  0  0  0  0  0
   -0.5912    2.9719    0.0000 H   0  0  0  0  0  0  0  0  0  0  0  0
    0.4693    2.3597    0.0000 H   0  0  0  0  0  0  0  0  0  0  0  0
   -2.3757    1.6635    0.0000 C   0  0  0  0  0  0  0  0  0  0  0  0
   -2.8568    0.1376    0.0000 H   0  0  0  0  0  0  0  0  0  0  0  0
   -3.7948    0.9248    0.0000 H   0  0  0  0  0  0  0  0  0  0  0  0
   -2.9230    3.1670    0.0000 C   0  0  0  0  0  0  0  0  0  0  0  0
   -2.4418    4.6929    0.0000 H   0  0  0  0  0  0  0  0  0  0  0  0
   -1.5037    3.9057    0.0000 H   0  0  0  0  0  0  0  0  0  0  0  0
   -4.4986    3.4449    0.0000 C   0  0  0  0  0  0  0  0  0  0  0  0
   -6.0743    3.7226    0.0000 H   0  0  0  0  0  0  0  0  0  0  0  0
   -5.0458    4.9483    0.0000 H   0  0  0  0  0  0  0  0  0  0  0  0
   -5.5270    2.2192    0.0000 H   0  0  0  0  0  0  0  0  0  0  0  0
   -0.8000   -1.3856    0.0000 C   0  0  0  0  0  0  0  0  0  0  0  0
   -2.2782   -1.9980    0.0000 H   0  0  0  0  0  0  0  0  0  0  0  0
   -2.2782   -0.7734    0.0000 H   0  0  0  0  0  0  0  0  0  0  0  0
   -0.2527   -2.8892    0.0000 C   0  0  0  0  0  0  0  0  0  0  0  0
    1.3093   -2.5428    0.0000 H   0  0  0  0  0  0  0  0  0  0  0  0
    1.0966   -3.7488    0.0000 H   0  0  0  0  0  0  0  0  0  0  0  0
   -1.2812   -4.1147    0.0000 C   0  0  0  0  0  0  0  0  0  0  0  0
   -2.8434   -4.4612    0.0000 H   0  0  0  0  0  0  0  0  0  0  0  0
   -2.6307   -3.2552    0.0000 H   0  0  0  0  0  0  0  0  0  0  0  0
   -0.7339   -5.6184    0.0000 C   0  0  0  0  0  0  0  0  0  0  0  0
   -0.1869   -7.1218    0.0000 H   0  0  0  0  0  0  0  0  0  0  0  0
   -1.7624   -6.8439    0.0000 H   0  0  0  0  0  0  0  0  0  0  0  0
    0.8416   -5.8961    0.0000 H   0  0  0  0  0  0  0  0  0  0  0  0
  1  2  1  0  0  0  0
  1  3  1  0  0  0  0
  1  4  1  0  0  0  0
  1  5  1  0  0  0  0
  5  6  1  0  0  0  0
  5  7  1  0  0  0  0
  5  8  1  0  0  0  0
  8  9  1  0  0  0  0
  8 10  1  0  0  0  0
  8 11  1  0  0  0  0
 11 12  1  0  0  0  0
 11 13  1  0  0  0  0
 11 14  1  0  0  0  0
 14 15  1  0  0  0  0
 15 16  1  0  0  0  0
 15 17  1  0  0  0  0
 15 18  1  0  0  0  0
 18 19  1  0  0  0  0
 18 20  1  0  0  0  0
 18 21  1  0  0  0  0
 21 22  1  0  0  0  0
 21 23  1  0  0  0  0
 21 24  1  0  0  0  0
 24 25  1  0  0  0  0
 24 26  1  0  0  0  0
 24 27  1  0  0  0  0
 14 28  1  0  0  0  0
 28 29  1  0  0  0  0
 28 30  1  0  0  0  0
 28 31  1  0  0  0  0
 31 32  1  0  0  0  0
 31 33  1  0  0  0  0
 31 34  1  0  0  0  0
 34 35  1  0  0  0  0
 34 36  1  0  0  0  0
 34 37  1  0  0  0  0
 37 38  1  0  0  0  0
 37 39  1  0  0  0  0
 37 40  1  0  0  0  0
M  END
> <ChemID>
201664

> <source_casrn>
102-82-9

> <CAS>
102-82-9

> <SMILES>
CCCCN(CCCC)CCCC

> <NAME>


> <preferred_name>
Tributylamine

> <iupac>
N,N-dibutylbutan-1-amine

> <MPID>
101400

> <dsstox_substance_id>
DTXSID4026183

> <Canonical_QSARr>
CCCCN(CCCC)CCCC

> <InChI_Code_QSARr>
InChI=1S/C12H27N/c1-4-7-10-13(11-8-5-2)12-9-6-3/h4-12H2,1-3H3

> <InChI Key_QSARr>
IMFACGCPASFAPR-UHFFFAOYSA-N

> <Salt_Solvent>


> <Ready_Biodeg>
0.0

$$$$
201688
  -INDIGO-08031722522D

 26 26  0  0  0  0  0  0  0  0999 V2000
    2.7712   -0.0000    0.0000 C   0  0  0  0  0  0  0  0  0  0  0  0
    4.1569   -0.8000    0.0000 H   0  0  0  0  0  0  0  0  0  0  0  0
    4.1569    0.8000    0.0000 H   0  0  0  0  0  0  0  0  0  0  0  0
    2.7712   -1.6000    0.0000 H   0  0  0  0  0  0  0  0  0  0  0  0
    1.3857    0.8000    0.0000 C   0  0  0  0  0  0  0  0  0  0  0  0
    0.7733    2.2782    0.0000 H   0  0  0  0  0  0  0  0  0  0  0  0
    1.9979    2.2782    0.0000 H   0  0  0  0  0  0  0  0  0  0  0  0
    0.0000   -0.0000    0.0000 C   0  0  0  0  0  0  0  0  0  0  0  0
    0.6124   -1.4782    0.0000 H   0  0  0  0  0  0  0  0  0  0  0  0
   -0.6124   -1.4782    0.0000 H   0  0  0  0  0  0  0  0  0  0  0  0
   -1.3857    0.8000    0.0000 C   0  0  0  0  0  0  0  0  0  0  0  0
   -1.9979    2.2782    0.0000 H   0  0  0  0  0  0  0  0  0  0  0  0
   -0.7733    2.2782    0.0000 H   0  0  0  0  0  0  0  0  0  0  0  0
   -2.7712   -0.0000    0.0000 C   0  0  0  0  0  0  0  0  0  0  0  0
   -4.1569    0.8000    0.0000 C   0  0  0  0  0  0  0  0  0  0  0  0
   -4.1569    2.4000    0.0000 H   0  0  0  0  0  0  0  0  0  0  0  0
   -5.5426   -0.0000    0.0000 C   0  0  0  0  0  0  0  0  0  0  0  0
   -6.9281    0.8000    0.0000 H   0  0  0  0  0  0  0  0  0  0  0  0
   -5.5426   -1.6000    0.0000 C   0  0  0  0  0  0  0  0  0  0  0  0
   -6.9281   -2.4000    0.0000 C   0  0  0  0  0  0  0  0  0  0  0  0
   -8.3138   -1.6000    0.0000 H   0  0  0  0  0  0  0  0  0  0  0  0
   -6.9281   -4.0000    0.0000 O   0  0  0  0  0  0  0  0  0  0  0  0
   -4.1569   -2.4000    0.0000 C   0  0  0  0  0  0  0  0  0  0  0  0
   -4.1569   -4.0000    0.0000 H   0  0  0  0  0  0  0  0  0  0  0  0
   -2.7712   -1.6000    0.0000 C   0  0  0  0  0  0  0  0  0  0  0  0
   -1.3857   -2.4000    0.0000 H   0  0  0  0  0  0  0  0  0  0  0  0
  1  2  1  0  0  0  0
  1  3  1  0  0  0  0
  1  4  1  0  0  0  0
  1  5  1  0  0  0  0
  5  6  1  0  0  0  0
  5  7  1  0  0  0  0
  5  8  1  0  0  0  0
  8  9  1  0  0  0  0
  8 10  1  0  0  0  0
  8 11  1  0  0  0  0
 11 12  1  0  0  0  0
 11 13  1  0  0  0  0
 11 14  1  0  0  0  0
 14 15  1  0  0  0  0
 15 16  1  0  0  0  0
 15 17  2  0  0  0  0
 17 18  1  0  0  0  0
 17 19  1  0  0  0  0
 19 20  1  0  0  0  0
 20 21  1  0  0  0  0
 20 22  2  0  0  0  0
 19 23  2  0  0  0  0
 23 24  1  0  0  0  0
 23 25  1  0  0  0  0
 25 14  2  0  0  0  0
 25 26  1  0  0  0  0
M  END
> <ChemID>
201688

> <source_casrn>
1200-14-2

> <CAS>
1200-14-2

> <SMILES>
CCCCc1ccc(C=O)cc1

> <NAME>


> <preferred_name>
Benzaldehyde, 4-butyl-

> <iupac>
4-Butylbenzaldehyde

> <MPID>
101408

> <dsstox_substance_id>
DTXSID0061616

> <Canonical_QSARr>
CCCCc1ccc(C=O)cc1

> <InChI_Code_QSARr>
InChI=1S/C11H14O/c1-2-3-4-10-5-7-11(9-12)8-6-10/h5-9H,2-4H2,1H3

> <InChI Key_QSARr>
ARIREUPIXAKDAY-UHFFFAOYSA-N

> <Salt_Solvent>


> <Ready_Biodeg>
0.0

$$$$
201692
  -INDIGO-08031722522D

 28 28  0  0  0  0  0  0  0  0999 V2000
    2.4000    1.3856    0.0000 C   0  0  0  0  0  0  0  0  0  0  0  0
    3.2000    2.7712    0.0000 H   0  0  0  0  0  0  0  0  0  0  0  0
    4.0000    1.3856    0.0000 H   0  0  0  0  0  0  0  0  0  0  0  0
    1.6000    2.7712    0.0000 H   0  0  0  0  0  0  0  0  0  0  0  0
    0.8000    1.3856    0.0000 C   0  0  0  0  0  0  0  0  0  0  0  0
   -0.4694    2.3596    0.0000 H   0  0  0  0  0  0  0  0  0  0  0  0
    0.5912    2.9720    0.0000 H   0  0  0  0  0  0  0  0  0  0  0  0
    0.0001    0.0000    0.0000 N   0  0  0  0  0  0  0  0  0  0  0  0
    0.8000   -1.3856    0.0000 C   0  0  0  0  0  0  0  0  0  0  0  0
    0.5912   -2.9720    0.0000 H   0  0  0  0  0  0  0  0  0  0  0  0
   -0.4694   -2.3596    0.0000 H   0  0  0  0  0  0  0  0  0  0  0  0
    2.4000   -1.3856    0.0000 C   0  0  0  0  0  0  0  0  0  0  0  0
    4.0000   -1.3856    0.0000 H   0  0  0  0  0  0  0  0  0  0  0  0
    3.2000   -2.7712    0.0000 H   0  0  0  0  0  0  0  0  0  0  0  0
    1.6000   -2.7712    0.0000 H   0  0  0  0  0  0  0  0  0  0  0  0
   -1.5999    0.0000    0.0000 C   0  0  0  0  0  0  0  0  0  0  0  0
   -2.4001    1.3856    0.0000 C   0  0  0  0  0  0  0  0  0  0  0  0
   -1.6001    2.7713    0.0000 H   0  0  0  0  0  0  0  0  0  0  0  0
   -4.0000    1.3856    0.0000 C   0  0  0  0  0  0  0  0  0  0  0  0
   -4.8000    2.7713    0.0000 H   0  0  0  0  0  0  0  0  0  0  0  0
   -4.8000    0.0000    0.0000 C   0  0  0  0  0  0  0  0  0  0  0  0
   -6.4000    0.0000    0.0000 C   0  0  0  0  0  0  0  0  0  0  0  0
   -7.2000    1.3856    0.0000 H   0  0  0  0  0  0  0  0  0  0  0  0
   -7.2000   -1.3856    0.0000 O   0  0  0  0  0  0  0  0  0  0  0  0
   -4.0000   -1.3856    0.0000 C   0  0  0  0  0  0  0  0  0  0  0  0
   -4.8000   -2.7712    0.0000 H   0  0  0  0  0  0  0  0  0  0  0  0
   -2.4001   -1.3856    0.0000 C   0  0  0  0  0  0  0  0  0  0  0  0
   -1.5999   -2.7712    0.0000 H   0  0  0  0  0  0  0  0  0  0  0  0
  1  2  1  0  0  0  0
  1  3  1  0  0  0  0
  1  4  1  0  0  0  0
  1  5  1  0  0  0  0
  5  6  1  0  0  0  0
  5  7  1  0  0  0  0
  5  8  1  0  0  0  0
  8  9  1  0  0  0  0
  9 10  1  0  0  0  0
  9 11  1  0  0  0  0
  9 12  1  0  0  0  0
 12 13  1  0  0  0  0
 12 14  1  0  0  0  0
 12 15  1  0  0  0  0
  8 16  1  0  0  0  0
 16 17  1  0  0  0  0
 17 18  1  0  0  0  0
 17 19  2  0  0  0  0
 19 20  1  0  0  0  0
 19 21  1  0  0  0  0
 21 22  1  0  0  0  0
 22 23  1  0  0  0  0
 22 24  2  0  0  0  0
 21 25  2  0  0  0  0
 25 26  1  0  0  0  0
 25 27  1  0  0  0  0
 27 16  2  0  0  0  0
 27 28  1  0  0  0  0
M  END
> <ChemID>
201692

> <source_casrn>
120-21-8

> <CAS>
120-21-8

> <SMILES>
CCN(CC)c1ccc(C=O)cc1

> <NAME>


> <preferred_name>
4-(Diethylamino)benzaldehyde

> <iupac>
4-(diethylamino)benzaldehyde

> <MPID>
101411

> <dsstox_substance_id>
DTXSID0021963

> <Canonical_QSARr>
CCN(CC)c1ccc(C=O)cc1

> <InChI_Code_QSARr>
InChI=1S/C11H15NO/c1-3-12(4-2)11-7-5-10(9-13)6-8-11/h5-9H,3-4H2,1-2H3

> <InChI Key_QSARr>
MNFZZNNFORDXSV-UHFFFAOYSA-N

> <Salt_Solvent>


> <Ready_Biodeg>
0.0

$$$$
201696
  -INDIGO-08031722522D

 17 16  0  0  0  0  0  0  0  0999 V2000
    1.3856    0.8000    0.0000 C   0  0  0  0  0  0  0  0  0  0  0  0
    2.7713    1.6000    0.0000 H   0  0  0  0  0  0  0  0  0  0  0  0
    2.7713    0.0000    0.0000 H   0  0  0  0  0  0  0  0  0  0  0  0
    1.3856    2.4000    0.0000 H   0  0  0  0  0  0  0  0  0  0  0  0
    0.0000    0.0000    0.0000 C   0  0  0  0  0  0  0  0  0  0  0  0
   -0.6122   -1.4782    0.0000 H   0  0  0  0  0  0  0  0  0  0  0  0
    0.6122   -1.4782    0.0000 H   0  0  0  0  0  0  0  0  0  0  0  0
   -1.3857    0.8000    0.0000 N   0  0  0  0  0  0  0  0  0  0  0  0
   -1.3857    2.4000    0.0000 O   0  0  0  0  0  0  0  0  0  0  0  0
   -2.7713    3.2000    0.0000 H   0  0  0  0  0  0  0  0  0  0  0  0
   -2.7713    0.0000    0.0000 C   0  0  0  0  0  0  0  0  0  0  0  0
   -3.3835   -1.4782    0.0000 H   0  0  0  0  0  0  0  0  0  0  0  0
   -2.1590   -1.4782    0.0000 H   0  0  0  0  0  0  0  0  0  0  0  0
   -4.1569    0.8000    0.0000 C   0  0  0  0  0  0  0  0  0  0  0  0
   -5.5426    0.0000    0.0000 H   0  0  0  0  0  0  0  0  0  0  0  0
   -5.5426    1.6000    0.0000 H   0  0  0  0  0  0  0  0  0  0  0  0
   -4.1569    2.4000    0.0000 H   0  0  0  0  0  0  0  0  0  0  0  0
  1  2  1  0  0  0  0
  1  3  1  0  0  0  0
  1  4  1  0  0  0  0
  1  5  1  0  0  0  0
  5  6  1  0  0  0  0
  5  7  1  0  0  0  0
  5  8  1  0  0  0  0
  8  9  1  0  0  0  0
  9 10  1  0  0  0  0
  8 11  1  0  0  0  0
 11 12  1  0  0  0  0
 11 13  1  0  0  0  0
 11 14  1  0  0  0  0
 14 15  1  0  0  0  0
 14 16  1  0  0  0  0
 14 17  1  0  0  0  0
M  END
> <ChemID>
201696

> <source_casrn>
3710-84-7

> <CAS>
3710-84-7

> <SMILES>
CCN(O)CC

> <NAME>


> <preferred_name>
N,N-Diethylhydroxylamine

> <iupac>
N-ethyl-N-hydroxyethanamine

> <MPID>
101414

> <dsstox_substance_id>
DTXSID2027543

> <Canonical_QSARr>
CCN(O)CC

> <InChI_Code_QSARr>
InChI=1S/C4H11NO/c1-3-5(6)4-2/h6H,3-4H2,1-2H3

> <InChI Key_QSARr>
FVCOIAYSJZGECG-UHFFFAOYSA-N

> <Salt_Solvent>


> <Ready_Biodeg>
0.0

$$$$
201712
  -INDIGO-08031722522D

 23 22  0  0  0  0  0  0  0  0999 V2000
    5.5427    0.0000    0.0000 C   0  0  0  0  0  0  0  0  0  0  0  0
    6.9282   -0.8000    0.0000 H   0  0  0  0  0  0  0  0  0  0  0  0
    6.9282    0.8000    0.0000 H   0  0  0  0  0  0  0  0  0  0  0  0
    5.5427   -1.6000    0.0000 H   0  0  0  0  0  0  0  0  0  0  0  0
    4.1569    0.8000    0.0000 C   0  0  0  0  0  0  0  0  0  0  0  0
    3.5446    2.2782    0.0000 H   0  0  0  0  0  0  0  0  0  0  0  0
    4.7692    2.2782    0.0000 H   0  0  0  0  0  0  0  0  0  0  0  0
    2.7714    0.0000    0.0000 O   0  0  0  0  0  0  0  0  0  0  0  0
    1.3856    0.8000    0.0000 C   0  0  0  0  0  0  0  0  0  0  0  0
    1.3856    2.4000    0.0000 O   0  0  0  0  0  0  0  0  0  0  0  0
    0.0001    0.0000    0.0000 C   0  0  0  0  0  0  0  0  0  0  0  0
    0.6122   -1.4782    0.0000 H   0  0  0  0  0  0  0  0  0  0  0  0
   -0.6122   -1.4782    0.0000 H   0  0  0  0  0  0  0  0  0  0  0  0
   -1.3856    0.8000    0.0000 C   0  0  0  0  0  0  0  0  0  0  0  0
   -1.3856    2.4000    0.0000 O   0  0  0  0  0  0  0  0  0  0  0  0
   -2.7712    0.0000    0.0000 O   0  0  0  0  0  0  0  0  0  0  0  0
   -4.1569    0.8000    0.0000 C   0  0  0  0  0  0  0  0  0  0  0  0
   -4.7692    2.2782    0.0000 H   0  0  0  0  0  0  0  0  0  0  0  0
   -3.5446    2.2782    0.0000 H   0  0  0  0  0  0  0  0  0  0  0  0
   -5.5425    0.0000    0.0000 C   0  0  0  0  0  0  0  0  0  0  0  0
   -6.9282   -0.8000    0.0000 H   0  0  0  0  0  0  0  0  0  0  0  0
   -6.9282    0.8000    0.0000 H   0  0  0  0  0  0  0  0  0  0  0  0
   -5.5425   -1.6000    0.0000 H   0  0  0  0  0  0  0  0  0  0  0  0
  1  2  1  0  0  0  0
  1  3  1  0  0  0  0
  1  4  1  0  0  0  0
  1  5  1  0  0  0  0
  5  6  1  0  0  0  0
  5  7  1  0  0  0  0
  5  8  1  0  0  0  0
  8  9  1  0  0  0  0
  9 10  2  0  0  0  0
  9 11  1  0  0  0  0
 11 12  1  0  0  0  0
 11 13  1  0  0  0  0
 11 14  1  0  0  0  0
 14 15  2  0  0  0  0
 14 16  1  0  0  0  0
 16 17  1  0  0  0  0
 17 18  1  0  0  0  0
 17 19  1  0  0  0  0
 17 20  1  0  0  0  0
 20 21  1  0  0  0  0
 20 22  1  0  0  0  0
 20 23  1  0  0  0  0
M  END
> <ChemID>
201712

> <source_casrn>
105-53-3

> <CAS>
105-53-3

> <SMILES>
CCOC(=O)CC(=O)OCC

> <NAME>


> <preferred_name>
Diethyl propanedioate

> <iupac>
diethyl propanedioate

> <MPID>
101420

> <dsstox_substance_id>
DTXSID7021863

> <Canonical_QSARr>
CCOC(=O)CC(=O)OCC

> <InChI_Code_QSARr>
InChI=1S/C7H12O4/c1-3-10-6(8)5-7(9)11-4-2/h3-5H2,1-2H3

> <InChI Key_QSARr>
IYXGSMUGOJNHAZ-UHFFFAOYSA-N

> <Salt_Solvent>


> <Ready_Biodeg>
1.0

$$$$
201736
  -INDIGO-08031722522D

 28 29  0  0  0  0  0  0  0  0999 V2000
    2.4000    1.3856    0.0000 C   0  0  0  0  0  0  0  0  0  0  0  0
    4.0000    1.3856    0.0000 H   0  0  0  0  0  0  0  0  0  0  0  0
    3.2000    2.7713    0.0000 H   0  0  0  0  0  0  0  0  0  0  0  0
    3.2000   -0.0000    0.0000 H   0  0  0  0  0  0  0  0  0  0  0  0
    1.6000    0.0000    0.0000 C   0  0  0  0  0  0  0  0  0  0  0  0
    2.8694   -0.9740    0.0000 H   0  0  0  0  0  0  0  0  0  0  0  0
    1.8088   -1.5863    0.0000 H   0  0  0  0  0  0  0  0  0  0  0  0
    0.0000    0.0000    0.0000 C   0  0  0  0  0  0  0  0  0  0  0  0
   -0.8000    1.3856    0.0000 C   0  0  0  0  0  0  0  0  0  0  0  0
    0.0000    2.7713    0.0000 H   0  0  0  0  0  0  0  0  0  0  0  0
   -2.4000    1.3856    0.0000 C   0  0  0  0  0  0  0  0  0  0  0  0
   -3.2000    2.7713    0.0000 H   0  0  0  0  0  0  0  0  0  0  0  0
   -3.2000    0.0000    0.0000 C   0  0  0  0  0  0  0  0  0  0  0  0
   -4.8000    0.0000    0.0000 C   0  0  0  0  0  0  0  0  0  0  0  0
   -5.6000    1.3856    0.0000 C   0  0  0  0  0  0  0  0  0  0  0  0
   -4.8000    2.7713    0.0000 H   0  0  0  0  0  0  0  0  0  0  0  0
   -7.2000    1.3856    0.0000 C   0  0  0  0  0  0  0  0  0  0  0  0
   -8.0000    2.7713    0.0000 H   0  0  0  0  0  0  0  0  0  0  0  0
   -8.0000   -0.0000    0.0000 C   0  0  0  0  0  0  0  0  0  0  0  0
   -9.6000   -0.0000    0.0000 H   0  0  0  0  0  0  0  0  0  0  0  0
   -7.2000   -1.3856    0.0000 C   0  0  0  0  0  0  0  0  0  0  0  0
   -8.0000   -2.7713    0.0000 H   0  0  0  0  0  0  0  0  0  0  0  0
   -5.6000   -1.3856    0.0000 C   0  0  0  0  0  0  0  0  0  0  0  0
   -4.8000   -2.7713    0.0000 H   0  0  0  0  0  0  0  0  0  0  0  0
   -2.4000   -1.3856    0.0000 C   0  0  0  0  0  0  0  0  0  0  0  0
   -3.2000   -2.7713    0.0000 H   0  0  0  0  0  0  0  0  0  0  0  0
   -0.8000   -1.3856    0.0000 C   0  0  0  0  0  0  0  0  0  0  0  0
    0.0000   -2.7713    0.0000 H   0  0  0  0  0  0  0  0  0  0  0  0
  1  2  1  0  0  0  0
  1  3  1  0  0  0  0
  1  4  1  0  0  0  0
  1  5  1  0  0  0  0
  5  6  1  0  0  0  0
  5  7  1  0  0  0  0
  5  8  1  0  0  0  0
  8  9  1  0  0  0  0
  9 10  1  0  0  0  0
  9 11  2  0  0  0  0
 11 12  1  0  0  0  0
 11 13  1  0  0  0  0
 13 14  1  0  0  0  0
 14 15  1  0  0  0  0
 15 16  1  0  0  0  0
 15 17  2  0  0  0  0
 17 18  1  0  0  0  0
 17 19  1  0  0  0  0
 19 20  1  0  0  0  0
 19 21  2  0  0  0  0
 21 22  1  0  0  0  0
 21 23  1  0  0  0  0
 23 14  2  0  0  0  0
 23 24  1  0  0  0  0
 13 25  2  0  0  0  0
 25 26  1  0  0  0  0
 25 27  1  0  0  0  0
 27  8  2  0  0  0  0
 27 28  1  0  0  0  0
M  END
> <ChemID>
201736

> <source_casrn>
5707-44-8

> <CAS>
5707-44-8

> <SMILES>
CCc1ccc(cc1)c2ccccc2

> <NAME>


> <preferred_name>
1,1'-Biphenyl, 4-ethyl-

> <iupac>
1-Ethyl-4-phenylbenzene

> <MPID>
101428

> <dsstox_substance_id>
DTXSID7073355

> <Canonical_QSARr>
CCc1ccc(cc1)-c1ccccc1

> <InChI_Code_QSARr>
InChI=1S/C14H14/c1-2-12-8-10-14(11-9-12)13-6-4-3-5-7-13/h3-11H,2H2,1H3

> <InChI Key_QSARr>
SRQOBNUBCLPPPH-UHFFFAOYSA-N

> <Salt_Solvent>


> <Ready_Biodeg>
0.0

$$$$
201740
  -INDIGO-08031722522D

 20 20  0  0  0  0  0  0  0  0999 V2000
    2.4001   -1.3856    0.0000 C   0  0  0  0  0  0  0  0  0  0  0  0
    4.0000   -1.3856    0.0000 H   0  0  0  0  0  0  0  0  0  0  0  0
    3.2000   -2.7713    0.0000 H   0  0  0  0  0  0  0  0  0  0  0  0
    3.2000    0.0000    0.0000 H   0  0  0  0  0  0  0  0  0  0  0  0
    1.6000    0.0000    0.0000 C   0  0  0  0  0  0  0  0  0  0  0  0
    2.8694    0.9740    0.0000 H   0  0  0  0  0  0  0  0  0  0  0  0
    1.8088    1.5863    0.0000 H   0  0  0  0  0  0  0  0  0  0  0  0
   -0.0000    0.0000    0.0000 C   0  0  0  0  0  0  0  0  0  0  0  0
   -0.8000   -1.3856    0.0000 C   0  0  0  0  0  0  0  0  0  0  0  0
   -0.0000   -2.7713    0.0000 H   0  0  0  0  0  0  0  0  0  0  0  0
   -2.4000   -1.3856    0.0000 C   0  0  0  0  0  0  0  0  0  0  0  0
   -3.2001   -2.7713    0.0000 H   0  0  0  0  0  0  0  0  0  0  0  0
   -3.2001    0.0000    0.0000 C   0  0  0  0  0  0  0  0  0  0  0  0
   -4.8000    0.0000    0.0000 H   0  0  0  0  0  0  0  0  0  0  0  0
   -2.4000    1.3856    0.0000 C   0  0  0  0  0  0  0  0  0  0  0  0
   -3.2001    2.7713    0.0000 H   0  0  0  0  0  0  0  0  0  0  0  0
   -0.8000    1.3856    0.0000 C   0  0  0  0  0  0  0  0  0  0  0  0
   -0.0000    2.7713    0.0000 N   0  0  0  0  0  0  0  0  0  0  0  0
   -0.8000    4.1569    0.0000 O   0  0  0  0  0  0  0  0  0  0  0  0
    1.6000    2.7713    0.0000 O   0  0  0  0  0  0  0  0  0  0  0  0
  1  2  1  0  0  0  0
  1  3  1  0  0  0  0
  1  4  1  0  0  0  0
  1  5  1  0  0  0  0
  5  6  1  0  0  0  0
  5  7  1  0  0  0  0
  5  8  1  0  0  0  0
  8  9  1  0  0  0  0
  9 10  1  0  0  0  0
  9 11  2  0  0  0  0
 11 12  1  0  0  0  0
 11 13  1  0  0  0  0
 13 14  1  0  0  0  0
 13 15  2  0  0  0  0
 15 16  1  0  0  0  0
 15 17  1  0  0  0  0
 17  8  2  0  0  0  0
 17 18  1  0  0  0  0
 18 19  1  0  0  0  0
 18 20  2  0  0  0  0
M  CHG  2  18   1  19  -1
M  END
> <ChemID>
201740

> <source_casrn>
612-22-6

> <CAS>
612-22-6

> <SMILES>
CCc1ccccc1[N+]([O-])=O

> <NAME>


> <preferred_name>
Benzene, 1-ethyl-2-nitro-

> <iupac>
1-Ethyl-2-nitrobenzene

> <MPID>
101432

> <dsstox_substance_id>
DTXSID4073209

> <Canonical_QSARr>
CCc1ccccc1[N+]([O-])=O

> <InChI_Code_QSARr>
InChI=1S/C8H9NO2/c1-2-7-5-3-4-6-8(7)9(10)11/h3-6H,2H2,1H3

> <InChI Key_QSARr>
PXWYZLWEKCMTEZ-UHFFFAOYSA-N

> <Salt_Solvent>


> <Ready_Biodeg>
0.0

$$$$
201749
  -INDIGO-08031722522D

 36 35  0  0  0  0  0  0  0  0999 V2000
   -4.1570   -2.4000    0.0000 C   0  0  0  0  0  0  0  0  0  0  0  0
   -4.1570   -4.0000    0.0000 H   0  0  0  0  0  0  0  0  0  0  0  0
   -5.5425   -3.2000    0.0000 H   0  0  0  0  0  0  0  0  0  0  0  0
   -2.7713   -3.2000    0.0000 H   0  0  0  0  0  0  0  0  0  0  0  0
   -4.1570   -0.8000    0.0000 N   0  0  0  0  0  0  0  0  0  0  0  0
   -5.5425   -0.0000    0.0000 C   0  0  0  0  0  0  0  0  0  0  0  0
   -6.9282    0.8000    0.0000 H   0  0  0  0  0  0  0  0  0  0  0  0
   -6.9282   -0.8000    0.0000 H   0  0  0  0  0  0  0  0  0  0  0  0
   -5.5425    1.6000    0.0000 H   0  0  0  0  0  0  0  0  0  0  0  0
   -2.7713   -0.0000    0.0000 C   0  0  0  0  0  0  0  0  0  0  0  0
   -3.3835    1.4782    0.0000 H   0  0  0  0  0  0  0  0  0  0  0  0
   -2.1589    1.4782    0.0000 H   0  0  0  0  0  0  0  0  0  0  0  0
   -1.3856   -0.8000    0.0000 C   0  0  0  0  0  0  0  0  0  0  0  0
   -0.7732   -2.2782    0.0000 H   0  0  0  0  0  0  0  0  0  0  0  0
   -1.9980   -2.2782    0.0000 H   0  0  0  0  0  0  0  0  0  0  0  0
    0.0001   -0.0000    0.0000 C   0  0  0  0  0  0  0  0  0  0  0  0
   -0.6123    1.4782    0.0000 H   0  0  0  0  0  0  0  0  0  0  0  0
    0.6122    1.4782    0.0000 H   0  0  0  0  0  0  0  0  0  0  0  0
    1.3856   -0.8000    0.0000 C   0  0  0  0  0  0  0  0  0  0  0  0
    1.9979   -2.2782    0.0000 H   0  0  0  0  0  0  0  0  0  0  0  0
    0.7734   -2.2782    0.0000 H   0  0  0  0  0  0  0  0  0  0  0  0
    2.7713   -0.0000    0.0000 C   0  0  0  0  0  0  0  0  0  0  0  0
    2.1589    1.4782    0.0000 H   0  0  0  0  0  0  0  0  0  0  0  0
    3.3836    1.4782    0.0000 H   0  0  0  0  0  0  0  0  0  0  0  0
    4.1570   -0.8000    0.0000 C   0  0  0  0  0  0  0  0  0  0  0  0
    4.7691   -2.2782    0.0000 H   0  0  0  0  0  0  0  0  0  0  0  0
    3.5446   -2.2782    0.0000 H   0  0  0  0  0  0  0  0  0  0  0  0
    5.5427   -0.0000    0.0000 N   0  0  0  0  0  0  0  0  0  0  0  0
    6.9281   -0.8000    0.0000 C   0  0  0  0  0  0  0  0  0  0  0  0
    8.3138   -1.6000    0.0000 H   0  0  0  0  0  0  0  0  0  0  0  0
    8.3138   -0.0000    0.0000 H   0  0  0  0  0  0  0  0  0  0  0  0
    6.9281   -2.4000    0.0000 H   0  0  0  0  0  0  0  0  0  0  0  0
    5.5427    1.6000    0.0000 C   0  0  0  0  0  0  0  0  0  0  0  0
    5.5427    3.2000    0.0000 H   0  0  0  0  0  0  0  0  0  0  0  0
    6.9281    2.4000    0.0000 H   0  0  0  0  0  0  0  0  0  0  0  0
    4.1570    2.4000    0.0000 H   0  0  0  0  0  0  0  0  0  0  0  0
  1  2  1  0  0  0  0
  1  3  1  0  0  0  0
  1  4  1  0  0  0  0
  1  5  1  0  0  0  0
  5  6  1  0  0  0  0
  6  7  1  0  0  0  0
  6  8  1  0  0  0  0
  6  9  1  0  0  0  0
  5 10  1  0  0  0  0
 10 11  1  0  0  0  0
 10 12  1  0  0  0  0
 10 13  1  0  0  0  0
 13 14  1  0  0  0  0
 13 15  1  0  0  0  0
 13 16  1  0  0  0  0
 16 17  1  0  0  0  0
 16 18  1  0  0  0  0
 16 19  1  0  0  0  0
 19 20  1  0  0  0  0
 19 21  1  0  0  0  0
 19 22  1  0  0  0  0
 22 23  1  0  0  0  0
 22 24  1  0  0  0  0
 22 25  1  0  0  0  0
 25 26  1  0  0  0  0
 25 27  1  0  0  0  0
 25 28  1  0  0  0  0
 28 29  1  0  0  0  0
 29 30  1  0  0  0  0
 29 31  1  0  0  0  0
 29 32  1  0  0  0  0
 28 33  1  0  0  0  0
 33 34  1  0  0  0  0
 33 35  1  0  0  0  0
 33 36  1  0  0  0  0
M  END
> <ChemID>
201749

> <source_casrn>
111-18-2

> <CAS>
111-18-2

> <SMILES>
CN(C)CCCCCCN(C)C

> <NAME>


> <preferred_name>
N,N,N',N`-Tetramethylhexanediamine

> <iupac>
C10H24N2

> <MPID>
101436

> <dsstox_substance_id>
DTXSID5033701

> <Canonical_QSARr>
CN(C)CCCCCCN(C)C

> <InChI_Code_QSARr>
InChI=1S/C10H24N2/c1-11(2)9-7-5-6-8-10-12(3)4/h5-10H2,1-4H3

> <InChI Key_QSARr>
TXXWBTOATXBWDR-UHFFFAOYSA-N

> <Salt_Solvent>


> <Ready_Biodeg>
0.0

$$$$
201757
  -INDIGO-08031722522D

 23 23  0  0  0  0  0  0  0  0999 V2000
   -1.3856    2.4000    0.0000 C   0  0  0  0  0  0  0  0  0  0  0  0
   -1.3856    4.0000    0.0000 H   0  0  0  0  0  0  0  0  0  0  0  0
   -2.7713    3.2001    0.0000 H   0  0  0  0  0  0  0  0  0  0  0  0
    0.0001    3.2001    0.0000 H   0  0  0  0  0  0  0  0  0  0  0  0
   -1.3856    0.8000    0.0000 N   0  0  0  0  0  0  0  0  0  0  0  0
   -2.7713    0.0001    0.0000 C   0  0  0  0  0  0  0  0  0  0  0  0
   -4.1569   -0.8000    0.0000 H   0  0  0  0  0  0  0  0  0  0  0  0
   -4.1569    0.8000    0.0000 H   0  0  0  0  0  0  0  0  0  0  0  0
   -2.7713   -1.5999    0.0000 H   0  0  0  0  0  0  0  0  0  0  0  0
    0.0001    0.0001    0.0000 C   0  0  0  0  0  0  0  0  0  0  0  0
    0.0001   -1.6001    0.0000 C   0  0  0  0  0  0  0  0  0  0  0  0
   -1.3856   -2.4000    0.0000 H   0  0  0  0  0  0  0  0  0  0  0  0
    1.3857   -2.4000    0.0000 C   0  0  0  0  0  0  0  0  0  0  0  0
    1.3857   -4.0000    0.0000 H   0  0  0  0  0  0  0  0  0  0  0  0
    2.7712   -1.5999    0.0000 C   0  0  0  0  0  0  0  0  0  0  0  0
    4.1569   -2.4000    0.0000 H   0  0  0  0  0  0  0  0  0  0  0  0
    2.7712    0.0001    0.0000 C   0  0  0  0  0  0  0  0  0  0  0  0
    4.1569    0.8000    0.0000 C   0  0  0  0  0  0  0  0  0  0  0  0
    5.5425    0.0001    0.0000 O   0  0  0  0  0  0  0  0  0  0  0  0
    6.9282    0.8000    0.0000 H   0  0  0  0  0  0  0  0  0  0  0  0
    4.1569    2.4000    0.0000 O   0  0  0  0  0  0  0  0  0  0  0  0
    1.3857    0.8000    0.0000 C   0  0  0  0  0  0  0  0  0  0  0  0
    1.3856    2.4000    0.0000 H   0  0  0  0  0  0  0  0  0  0  0  0
  1  2  1  0  0  0  0
  1  3  1  0  0  0  0
  1  4  1  0  0  0  0
  1  5  1  0  0  0  0
  5  6  1  0  0  0  0
  6  7  1  0  0  0  0
  6  8  1  0  0  0  0
  6  9  1  0  0  0  0
  5 10  1  0  0  0  0
 10 11  1  0  0  0  0
 11 12  1  0  0  0  0
 11 13  2  0  0  0  0
 13 14  1  0  0  0  0
 13 15  1  0  0  0  0
 15 16  1  0  0  0  0
 15 17  2  0  0  0  0
 17 18  1  0  0  0  0
 18 19  1  0  0  0  0
 19 20  1  0  0  0  0
 18 21  2  0  0  0  0
 17 22  1  0  0  0  0
 22 10  2  0  0  0  0
 22 23  1  0  0  0  0
M  END
> <ChemID>
201757

> <source_casrn>
99-64-9

> <CAS>
99-64-9

> <SMILES>
CN(C)c1cccc(c1)C(O)=O

> <NAME>


> <preferred_name>
Benzoic acid, 3-(dimethylamino)-

> <iupac>
3-Dimethylaminobenzoic acid

> <MPID>
101440

> <dsstox_substance_id>
DTXSID7059199

> <Canonical_QSARr>
CN(C)c1cc(ccc1)C(O)=O

> <InChI_Code_QSARr>
InChI=1S/C9H11NO2/c1-10(2)8-5-3-4-7(6-8)9(11)12/h3-6H,1-2H3,(H,11,12)

> <InChI Key_QSARr>
NEGFNJRAUMCZMY-UHFFFAOYSA-N

> <Salt_Solvent>


> <Ready_Biodeg>
0.0

$$$$
201777
  -INDIGO-08031722522D

 14 13  0  0  0  0  0  0  0  0999 V2000
    2.7713    0.0000    0.0000 C   0  0  0  0  0  0  0  0  0  0  0  0
    4.1569   -0.8000    0.0000 H   0  0  0  0  0  0  0  0  0  0  0  0
    4.1569    0.8000    0.0000 H   0  0  0  0  0  0  0  0  0  0  0  0
    2.7713   -1.6000    0.0000 H   0  0  0  0  0  0  0  0  0  0  0  0
    1.3856    0.8000    0.0000 N   0  0  0  0  0  0  0  0  0  0  0  0
    1.3856    2.4000    0.0000 H   0  0  0  0  0  0  0  0  0  0  0  0
    0.0001    0.0000    0.0000 C   0  0  0  0  0  0  0  0  0  0  0  0
   -0.6123   -1.4782    0.0000 H   0  0  0  0  0  0  0  0  0  0  0  0
    0.6123   -1.4782    0.0000 H   0  0  0  0  0  0  0  0  0  0  0  0
   -1.3856    0.8000    0.0000 C   0  0  0  0  0  0  0  0  0  0  0  0
   -0.7734    2.2782    0.0000 H   0  0  0  0  0  0  0  0  0  0  0  0
   -1.9979    2.2782    0.0000 H   0  0  0  0  0  0  0  0  0  0  0  0
   -2.7713    0.0000    0.0000 O   0  0  0  0  0  0  0  0  0  0  0  0
   -4.1569    0.8000    0.0000 H   0  0  0  0  0  0  0  0  0  0  0  0
  1  2  1  0  0  0  0
  1  3  1  0  0  0  0
  1  4  1  0  0  0  0
  1  5  1  0  0  0  0
  5  6  1  0  0  0  0
  5  7  1  0  0  0  0
  7  8  1  0  0  0  0
  7  9  1  0  0  0  0
  7 10  1  0  0  0  0
 10 11  1  0  0  0  0
 10 12  1  0  0  0  0
 10 13  1  0  0  0  0
 13 14  1  0  0  0  0
M  END
> <ChemID>
201777

> <source_casrn>
109-83-1

> <CAS>
109-83-1

> <SMILES>
CNCCO

> <NAME>


> <preferred_name>
N-Methylethanolamine

> <iupac>
2-(methylamino)ethanol

> <MPID>
101452

> <dsstox_substance_id>
DTXSID5025603

> <Canonical_QSARr>
CNCCO

> <InChI_Code_QSARr>
InChI=1S/C3H9NO/c1-4-2-3-5/h4-5H,2-3H2,1H3

> <InChI Key_QSARr>
OPKOKAMJFNKNAS-UHFFFAOYSA-N

> <Salt_Solvent>


> <Ready_Biodeg>
1.0

$$$$
201785
  -INDIGO-08031722522D

 25 24  0  0  0  0  0  0  0  0999 V2000
    7.1425    0.0000    0.0000 C   0  0  0  0  0  0  0  0  0  0  0  0
    8.5282   -0.8000    0.0000 H   0  0  0  0  0  0  0  0  0  0  0  0
    8.5282    0.8000    0.0000 H   0  0  0  0  0  0  0  0  0  0  0  0
    7.1425   -1.6000    0.0000 H   0  0  0  0  0  0  0  0  0  0  0  0
    5.7570    0.8000    0.0000 O   0  0  0  0  0  0  0  0  0  0  0  0
    4.3713    0.0000    0.0000 C   0  0  0  0  0  0  0  0  0  0  0  0
    4.3713   -1.6000    0.0000 O   0  0  0  0  0  0  0  0  0  0  0  0
    2.9856    0.8000    0.0000 C   0  0  0  0  0  0  0  0  0  0  0  0
    2.3734    2.2782    0.0000 H   0  0  0  0  0  0  0  0  0  0  0  0
    3.5980    2.2782    0.0000 H   0  0  0  0  0  0  0  0  0  0  0  0
    1.6001    0.0000    0.0000 C   0  0  0  0  0  0  0  0  0  0  0  0
    2.4000   -1.3856    0.0000 O   0  0  0  0  0  0  0  0  0  0  0  0
    0.0000    0.0000    0.0000 C   0  0  0  0  0  0  0  0  0  0  0  0
   -1.5999   -0.0000    0.0000 C   0  0  0  0  0  0  0  0  0  0  0  0
   -3.2000   -0.0000    0.0000 H   0  0  0  0  0  0  0  0  0  0  0  0
   -2.4000   -1.3856    0.0000 H   0  0  0  0  0  0  0  0  0  0  0  0
   -2.4000    1.3856    0.0000 H   0  0  0  0  0  0  0  0  0  0  0  0
    0.0000    1.6000    0.0000 C   0  0  0  0  0  0  0  0  0  0  0  0
    0.0000    3.2000    0.0000 H   0  0  0  0  0  0  0  0  0  0  0  0
   -1.3857    2.4000    0.0000 H   0  0  0  0  0  0  0  0  0  0  0  0
    1.3857    2.4000    0.0000 H   0  0  0  0  0  0  0  0  0  0  0  0
    0.0000   -1.6000    0.0000 C   0  0  0  0  0  0  0  0  0  0  0  0
    0.0000   -3.2000    0.0000 H   0  0  0  0  0  0  0  0  0  0  0  0
    1.3857   -2.4000    0.0000 H   0  0  0  0  0  0  0  0  0  0  0  0
   -1.3857   -2.4000    0.0000 H   0  0  0  0  0  0  0  0  0  0  0  0
  1  2  1  0  0  0  0
  1  3  1  0  0  0  0
  1  4  1  0  0  0  0
  1  5  1  0  0  0  0
  5  6  1  0  0  0  0
  6  7  2  0  0  0  0
  6  8  1  0  0  0  0
  8  9  1  0  0  0  0
  8 10  1  0  0  0  0
  8 11  1  0  0  0  0
 11 12  2  0  0  0  0
 11 13  1  0  0  0  0
 13 14  1  0  0  0  0
 14 15  1  0  0  0  0
 14 16  1  0  0  0  0
 14 17  1  0  0  0  0
 13 18  1  0  0  0  0
 18 19  1  0  0  0  0
 18 20  1  0  0  0  0
 18 21  1  0  0  0  0
 13 22  1  0  0  0  0
 22 23  1  0  0  0  0
 22 24  1  0  0  0  0
 22 25  1  0  0  0  0
M  END
> <ChemID>
201785

> <source_casrn>
55107-14-7

> <CAS>
55107-14-7

> <SMILES>
COC(=O)CC(=O)C(C)(C)C

> <NAME>


> <preferred_name>
Methyl 4,4,4-trimethylacetoacetate

> <iupac>
methyl 4,4-dimethyl-3-oxopentanoate

> <MPID>
101454

> <dsstox_substance_id>
DTXSID2042149

> <Canonical_QSARr>
COC(=O)CC(=O)C(C)(C)C

> <InChI_Code_QSARr>
InChI=1S/C8H14O3/c1-8(2,3)6(9)5-7(10)11-4/h5H2,1-4H3

> <InChI Key_QSARr>
XTXCFTMJPRXBBC-UHFFFAOYSA-N

> <Salt_Solvent>


> <Ready_Biodeg>
0.0

$$$$
201805
  -INDIGO-08031722522D

 27 26  0  0  0  0  0  0  0  0999 V2000
    6.9283    0.8000    0.0000 C   0  0  0  0  0  0  0  0  0  0  0  0
    8.3138    1.6000    0.0000 H   0  0  0  0  0  0  0  0  0  0  0  0
    8.3138    0.0000    0.0000 H   0  0  0  0  0  0  0  0  0  0  0  0
    6.9283    2.4000    0.0000 H   0  0  0  0  0  0  0  0  0  0  0  0
    5.5427    0.0000    0.0000 O   0  0  0  0  0  0  0  0  0  0  0  0
    4.1569    0.8000    0.0000 C   0  0  0  0  0  0  0  0  0  0  0  0
    4.7691    2.2782    0.0000 H   0  0  0  0  0  0  0  0  0  0  0  0
    3.5446    2.2782    0.0000 H   0  0  0  0  0  0  0  0  0  0  0  0
    2.7713    0.0000    0.0000 C   0  0  0  0  0  0  0  0  0  0  0  0
    2.1590   -1.4782    0.0000 H   0  0  0  0  0  0  0  0  0  0  0  0
    3.3835   -1.4782    0.0000 H   0  0  0  0  0  0  0  0  0  0  0  0
    1.3857    0.8000    0.0000 O   0  0  0  0  0  0  0  0  0  0  0  0
    0.0001    0.0000    0.0000 C   0  0  0  0  0  0  0  0  0  0  0  0
   -0.6124   -1.4782    0.0000 H   0  0  0  0  0  0  0  0  0  0  0  0
    0.6124   -1.4782    0.0000 H   0  0  0  0  0  0  0  0  0  0  0  0
   -1.3857    0.8000    0.0000 C   0  0  0  0  0  0  0  0  0  0  0  0
   -0.7735    2.2782    0.0000 H   0  0  0  0  0  0  0  0  0  0  0  0
   -1.9979    2.2782    0.0000 H   0  0  0  0  0  0  0  0  0  0  0  0
   -2.7713    0.0000    0.0000 O   0  0  0  0  0  0  0  0  0  0  0  0
   -4.1569    0.8000    0.0000 C   0  0  0  0  0  0  0  0  0  0  0  0
   -3.5446    2.2782    0.0000 H   0  0  0  0  0  0  0  0  0  0  0  0
   -4.7691    2.2782    0.0000 H   0  0  0  0  0  0  0  0  0  0  0  0
   -5.5424    0.0000    0.0000 C   0  0  0  0  0  0  0  0  0  0  0  0
   -6.1549   -1.4782    0.0000 H   0  0  0  0  0  0  0  0  0  0  0  0
   -4.9302   -1.4782    0.0000 H   0  0  0  0  0  0  0  0  0  0  0  0
   -6.9283    0.8000    0.0000 O   0  0  0  0  0  0  0  0  0  0  0  0
   -8.3138    0.0000    0.0000 H   0  0  0  0  0  0  0  0  0  0  0  0
  1  2  1  0  0  0  0
  1  3  1  0  0  0  0
  1  4  1  0  0  0  0
  1  5  1  0  0  0  0
  5  6  1  0  0  0  0
  6  7  1  0  0  0  0
  6  8  1  0  0  0  0
  6  9  1  0  0  0  0
  9 10  1  0  0  0  0
  9 11  1  0  0  0  0
  9 12  1  0  0  0  0
 12 13  1  0  0  0  0
 13 14  1  0  0  0  0
 13 15  1  0  0  0  0
 13 16  1  0  0  0  0
 16 17  1  0  0  0  0
 16 18  1  0  0  0  0
 16 19  1  0  0  0  0
 19 20  1  0  0  0  0
 20 21  1  0  0  0  0
 20 22  1  0  0  0  0
 20 23  1  0  0  0  0
 23 24  1  0  0  0  0
 23 25  1  0  0  0  0
 23 26  1  0  0  0  0
 26 27  1  0  0  0  0
M  END
> <ChemID>
201805

> <source_casrn>
112-35-6

> <CAS>
112-35-6

> <SMILES>
COCCOCCOCCO

> <NAME>


> <preferred_name>
2-[2-(2-Methoxyethoxy)ethoxy]ethanol

> <iupac>
2-[2-(2-methoxyethoxy)ethoxy]ethanol

> <MPID>
101464

> <dsstox_substance_id>
DTXSID5026912

> <Canonical_QSARr>
COCCOCCOCCO

> <InChI_Code_QSARr>
InChI=1S/C7H16O4/c1-9-4-5-11-7-6-10-3-2-8/h8H,2-7H2,1H3

> <InChI Key_QSARr>
JLGLQAWTXXGVEM-UHFFFAOYSA-N

> <Salt_Solvent>


> <Ready_Biodeg>
1.0

$$$$
201813
  -INDIGO-08031722522D

 24 26  0  0  0  0  0  0  0  0999 V2000
    4.8000    2.7713    0.0000 C   0  0  0  0  0  0  0  0  0  0  0  0
    5.6000    4.1569    0.0000 H   0  0  0  0  0  0  0  0  0  0  0  0
    6.4000    2.7713    0.0000 H   0  0  0  0  0  0  0  0  0  0  0  0
    4.0001    4.1569    0.0000 H   0  0  0  0  0  0  0  0  0  0  0  0
    3.1999    2.7713    0.0000 O   0  0  0  0  0  0  0  0  0  0  0  0
    2.4000    1.3857    0.0000 C   0  0  0  0  0  0  0  0  0  0  0  0
    3.1999    0.0001    0.0000 C   0  0  0  0  0  0  0  0  0  0  0  0
    4.7650   -0.3326    0.0000 O   0  0  0  0  0  0  0  0  0  0  0  0
    4.9322   -1.9239    0.0000 C   0  0  0  0  0  0  0  0  0  0  0  0
    6.3180   -2.7238    0.0000 H   0  0  0  0  0  0  0  0  0  0  0  0
    3.4707   -2.5747    0.0000 C   0  0  0  0  0  0  0  0  0  0  0  0
    3.1379   -4.1397    0.0000 H   0  0  0  0  0  0  0  0  0  0  0  0
    2.4000   -1.3857    0.0000 C   0  0  0  0  0  0  0  0  0  0  0  0
    0.8000   -1.3857    0.0000 C   0  0  0  0  0  0  0  0  0  0  0  0
    0.0000   -2.7713    0.0000 H   0  0  0  0  0  0  0  0  0  0  0  0
    0.0000    0.0001    0.0000 C   0  0  0  0  0  0  0  0  0  0  0  0
   -1.6001    0.0001    0.0000 C   0  0  0  0  0  0  0  0  0  0  0  0
   -2.4000   -1.3857    0.0000 H   0  0  0  0  0  0  0  0  0  0  0  0
   -2.4000    1.3857    0.0000 C   0  0  0  0  0  0  0  0  0  0  0  0
   -4.0000    1.3857    0.0000 H   0  0  0  0  0  0  0  0  0  0  0  0
   -1.6001    2.7713    0.0000 C   0  0  0  0  0  0  0  0  0  0  0  0
   -2.4000    4.1569    0.0000 O   0  0  0  0  0  0  0  0  0  0  0  0
    0.0000    2.7713    0.0000 O   0  0  0  0  0  0  0  0  0  0  0  0
    0.8000    1.3857    0.0000 C   0  0  0  0  0  0  0  0  0  0  0  0
  1  2  1  0  0  0  0
  1  3  1  0  0  0  0
  1  4  1  0  0  0  0
  1  5  1  0  0  0  0
  5  6  1  0  0  0  0
  6  7  2  0  0  0  0
  7  8  1  0  0  0  0
  8  9  1  0  0  0  0
  9 10  1  0  0  0  0
  9 11  2  0  0  0  0
 11 12  1  0  0  0  0
 11 13  1  0  0  0  0
 13  7  1  0  0  0  0
 13 14  2  0  0  0  0
 14 15  1  0  0  0  0
 14 16  1  0  0  0  0
 16 17  1  0  0  0  0
 17 18  1  0  0  0  0
 17 19  2  0  0  0  0
 19 20  1  0  0  0  0
 19 21  1  0  0  0  0
 21 22  2  0  0  0  0
 21 23  1  0  0  0  0
 23 24  1  0  0  0  0
 24  6  1  0  0  0  0
 24 16  2  0  0  0  0
M  END
> <ChemID>
201813

> <source_casrn>
298-81-7

> <CAS>
298-81-7

> <SMILES>
COc1c2occc2cc3C=CC(=O)Oc13

> <NAME>


> <preferred_name>
8-Methoxypsoralen

> <iupac>
9-methoxy-7H-furo[3,2-g]chromen-7-one

> <MPID>
101469

> <dsstox_substance_id>
DTXSID8020830

> <Canonical_QSARr>
COc1c2OC(=O)C=Cc2cc2ccoc21

> <InChI_Code_QSARr>
InChI=1S/C12H8O4/c1-14-12-10-8(4-5-15-10)6-7-2-3-9(13)16-11(7)12/h2-6H,1H3

> <InChI Key_QSARr>
QXKHYNVANLEOEG-UHFFFAOYSA-N

> <Salt_Solvent>


> <Ready_Biodeg>
0.0

$$$$
201817
  -INDIGO-08031722522D

 29 29  0  0  0  0  0  0  0  0999 V2000
    6.9282   -0.8000    0.0000 C   0  0  0  0  0  0  0  0  0  0  0  0
    8.3138    0.0000    0.0000 H   0  0  0  0  0  0  0  0  0  0  0  0
    8.3138   -1.6000    0.0000 H   0  0  0  0  0  0  0  0  0  0  0  0
    6.9282    0.8000    0.0000 H   0  0  0  0  0  0  0  0  0  0  0  0
    5.5426    0.0000    0.0000 O   0  0  0  0  0  0  0  0  0  0  0  0
    4.1569   -0.8000    0.0000 C   0  0  0  0  0  0  0  0  0  0  0  0
    4.1569   -2.4000    0.0000 C   0  0  0  0  0  0  0  0  0  0  0  0
    5.5426   -3.2000    0.0000 H   0  0  0  0  0  0  0  0  0  0  0  0
    2.7712   -3.2000    0.0000 C   0  0  0  0  0  0  0  0  0  0  0  0
    2.7712   -4.8000    0.0000 H   0  0  0  0  0  0  0  0  0  0  0  0
    1.3857   -2.4000    0.0000 C   0  0  0  0  0  0  0  0  0  0  0  0
    0.0000   -3.2000    0.0000 O   0  0  0  0  0  0  0  0  0  0  0  0
    0.0000   -4.8000    0.0000 H   0  0  0  0  0  0  0  0  0  0  0  0
    1.3857   -0.8000    0.0000 C   0  0  0  0  0  0  0  0  0  0  0  0
    0.0000    0.0000    0.0000 C   0  0  0  0  0  0  0  0  0  0  0  0
   -1.3857    0.8000    0.0000 C   0  0  0  0  0  0  0  0  0  0  0  0
   -2.7714    1.6001    0.0000 H   0  0  0  0  0  0  0  0  0  0  0  0
   -1.6635    2.3757    0.0000 H   0  0  0  0  0  0  0  0  0  0  0  0
   -2.8891    0.2528    0.0000 H   0  0  0  0  0  0  0  0  0  0  0  0
    0.8001    1.3857    0.0000 C   0  0  0  0  0  0  0  0  0  0  0  0
    1.8285    2.6113    0.0000 H   0  0  0  0  0  0  0  0  0  0  0  0
    0.2529    2.8891    0.0000 H   0  0  0  0  0  0  0  0  0  0  0  0
   -0.7757    1.6635    0.0000 H   0  0  0  0  0  0  0  0  0  0  0  0
   -0.8000   -1.3856    0.0000 C   0  0  0  0  0  0  0  0  0  0  0  0
   -1.3472   -2.8892    0.0000 H   0  0  0  0  0  0  0  0  0  0  0  0
   -2.3756   -1.6634    0.0000 H   0  0  0  0  0  0  0  0  0  0  0  0
   -1.8284   -0.1600    0.0000 H   0  0  0  0  0  0  0  0  0  0  0  0
    2.7712    0.0000    0.0000 C   0  0  0  0  0  0  0  0  0  0  0  0
    2.7712    1.6001    0.0000 H   0  0  0  0  0  0  0  0  0  0  0  0
  1  2  1  0  0  0  0
  1  3  1  0  0  0  0
  1  4  1  0  0  0  0
  1  5  1  0  0  0  0
  5  6  1  0  0  0  0
  6  7  1  0  0  0  0
  7  8  1  0  0  0  0
  7  9  2  0  0  0  0
  9 10  1  0  0  0  0
  9 11  1  0  0  0  0
 11 12  1  0  0  0  0
 12 13  1  0  0  0  0
 11 14  2  0  0  0  0
 14 15  1  0  0  0  0
 15 16  1  0  0  0  0
 16 17  1  0  0  0  0
 16 18  1  0  0  0  0
 16 19  1  0  0  0  0
 15 20  1  0  0  0  0
 20 21  1  0  0  0  0
 20 22  1  0  0  0  0
 20 23  1  0  0  0  0
 15 24  1  0  0  0  0
 24 25  1  0  0  0  0
 24 26  1  0  0  0  0
 24 27  1  0  0  0  0
 14 28  1  0  0  0  0
 28  6  2  0  0  0  0
 28 29  1  0  0  0  0
M  END
> <ChemID>
201817

> <source_casrn>
25013-16-5

> <CAS>
121-00-6

> <SMILES>
COc1ccc(O)c(c1)C(C)(C)C

> <NAME>


> <preferred_name>


> <iupac>


> <MPID>
101470

> <dsstox_substance_id>
DTXSID7040788

> <Canonical_QSARr>
COc1cc(c(O)cc1)C(C)(C)C

> <InChI_Code_QSARr>
InChI=1S/C11H16O2/c1-11(2,3)9-7-8(13-4)5-6-10(9)12/h5-7,12H,1-4H3

> <InChI Key_QSARr>
MRBKEAMVRSLQPH-UHFFFAOYSA-N

> <Salt_Solvent>


> <Ready_Biodeg>
0.0

$$$$
201821
  -INDIGO-08031722522D

 22 22  0  0  0  0  0  0  0  0999 V2000
    4.0001    1.3857    0.0000 C   0  0  0  0  0  0  0  0  0  0  0  0
    4.8000    2.7713    0.0000 H   0  0  0  0  0  0  0  0  0  0  0  0
    5.6000    1.3857    0.0000 H   0  0  0  0  0  0  0  0  0  0  0  0
    3.2000    2.7713    0.0000 H   0  0  0  0  0  0  0  0  0  0  0  0
    2.4000    1.3857    0.0000 O   0  0  0  0  0  0  0  0  0  0  0  0
    1.6000    0.0000    0.0000 C   0  0  0  0  0  0  0  0  0  0  0  0
    2.4000   -1.3857    0.0000 C   0  0  0  0  0  0  0  0  0  0  0  0
    4.0001   -1.3857    0.0000 H   0  0  0  0  0  0  0  0  0  0  0  0
    1.6000   -2.7713    0.0000 C   0  0  0  0  0  0  0  0  0  0  0  0
    2.4000   -4.1570    0.0000 H   0  0  0  0  0  0  0  0  0  0  0  0
   -0.0000   -2.7713    0.0000 C   0  0  0  0  0  0  0  0  0  0  0  0
   -0.8000   -4.1570    0.0000 C   0  0  0  0  0  0  0  0  0  0  0  0
   -0.0000   -5.5426    0.0000 H   0  0  0  0  0  0  0  0  0  0  0  0
   -2.4001   -4.1569    0.0000 O   0  0  0  0  0  0  0  0  0  0  0  0
   -0.8000   -1.3857    0.0000 C   0  0  0  0  0  0  0  0  0  0  0  0
   -2.4001   -1.3857    0.0000 H   0  0  0  0  0  0  0  0  0  0  0  0
   -0.0000    0.0000    0.0000 C   0  0  0  0  0  0  0  0  0  0  0  0
   -0.8000    1.3857    0.0000 O   0  0  0  0  0  0  0  0  0  0  0  0
   -2.3999    1.3857    0.0000 C   0  0  0  0  0  0  0  0  0  0  0  0
   -3.2000    2.7713    0.0000 H   0  0  0  0  0  0  0  0  0  0  0  0
   -4.0000    1.3857    0.0000 H   0  0  0  0  0  0  0  0  0  0  0  0
   -1.6000    2.7713    0.0000 H   0  0  0  0  0  0  0  0  0  0  0  0
  1  2  1  0  0  0  0
  1  3  1  0  0  0  0
  1  4  1  0  0  0  0
  1  5  1  0  0  0  0
  5  6  1  0  0  0  0
  6  7  1  0  0  0  0
  7  8  1  0  0  0  0
  7  9  2  0  0  0  0
  9 10  1  0  0  0  0
  9 11  1  0  0  0  0
 11 12  1  0  0  0  0
 12 13  1  0  0  0  0
 12 14  2  0  0  0  0
 11 15  2  0  0  0  0
 15 16  1  0  0  0  0
 15 17  1  0  0  0  0
 17  6  2  0  0  0  0
 17 18  1  0  0  0  0
 18 19  1  0  0  0  0
 19 20  1  0  0  0  0
 19 21  1  0  0  0  0
 19 22  1  0  0  0  0
M  END
> <ChemID>
201821

> <source_casrn>
120-14-9

> <CAS>
120-14-9

> <SMILES>
COc1ccc(C=O)cc1OC

> <NAME>


> <preferred_name>
Veratraldehyde

> <iupac>
3,4-dimethoxybenzaldehyde

> <MPID>
101472

> <dsstox_substance_id>
DTXSID7026285

> <Canonical_QSARr>
COc1ccc(C=O)cc1OC

> <InChI_Code_QSARr>
InChI=1S/C9H10O3/c1-11-8-4-3-7(6-10)5-9(8)12-2/h3-6H,1-2H3

> <InChI Key_QSARr>
WJUFSDZVCOTFON-UHFFFAOYSA-N

> <Salt_Solvent>


> <Ready_Biodeg>
1.0

$$$$
201825
  -INDIGO-08031722522D

 30 30  0  0  0  0  0  0  0  0999 V2000
    8.3139   -0.0000    0.0000 C   0  0  0  0  0  0  0  0  0  0  0  0
    9.6995   -0.8000    0.0000 H   0  0  0  0  0  0  0  0  0  0  0  0
    9.6995    0.8000    0.0000 H   0  0  0  0  0  0  0  0  0  0  0  0
    8.3139   -1.6000    0.0000 H   0  0  0  0  0  0  0  0  0  0  0  0
    6.9283    0.8000    0.0000 C   0  0  0  0  0  0  0  0  0  0  0  0
    6.3158    2.2782    0.0000 H   0  0  0  0  0  0  0  0  0  0  0  0
    7.5406    2.2782    0.0000 H   0  0  0  0  0  0  0  0  0  0  0  0
    5.5425   -0.0000    0.0000 O   0  0  0  0  0  0  0  0  0  0  0  0
    4.1569    0.8000    0.0000 C   0  0  0  0  0  0  0  0  0  0  0  0
    4.1569    2.4000    0.0000 O   0  0  0  0  0  0  0  0  0  0  0  0
    2.7713   -0.0000    0.0000 C   0  0  0  0  0  0  0  0  0  0  0  0
    3.3836   -1.4782    0.0000 H   0  0  0  0  0  0  0  0  0  0  0  0
    2.1591   -1.4782    0.0000 H   0  0  0  0  0  0  0  0  0  0  0  0
    1.3858    0.8000    0.0000 C   0  0  0  0  0  0  0  0  0  0  0  0
    1.3858    2.4000    0.0000 O   0  0  0  0  0  0  0  0  0  0  0  0
   -0.0001   -0.0000    0.0000 C   0  0  0  0  0  0  0  0  0  0  0  0
   -1.3856    0.8000    0.0000 C   0  0  0  0  0  0  0  0  0  0  0  0
   -1.3856    2.4000    0.0000 H   0  0  0  0  0  0  0  0  0  0  0  0
   -2.7712   -0.0000    0.0000 C   0  0  0  0  0  0  0  0  0  0  0  0
   -4.1570    0.8000    0.0000 H   0  0  0  0  0  0  0  0  0  0  0  0
   -2.7712   -1.6000    0.0000 C   0  0  0  0  0  0  0  0  0  0  0  0
   -4.1568   -2.4000    0.0000 O   0  0  0  0  0  0  0  0  0  0  0  0
   -5.5426   -1.6000    0.0000 C   0  0  0  0  0  0  0  0  0  0  0  0
   -6.9282   -2.4000    0.0000 H   0  0  0  0  0  0  0  0  0  0  0  0
   -6.9282   -0.8000    0.0000 H   0  0  0  0  0  0  0  0  0  0  0  0
   -5.5426   -3.2000    0.0000 H   0  0  0  0  0  0  0  0  0  0  0  0
   -1.3856   -2.4000    0.0000 C   0  0  0  0  0  0  0  0  0  0  0  0
   -1.3856   -4.0000    0.0000 H   0  0  0  0  0  0  0  0  0  0  0  0
   -0.0001   -1.6000    0.0000 C   0  0  0  0  0  0  0  0  0  0  0  0
    1.3858   -2.4000    0.0000 H   0  0  0  0  0  0  0  0  0  0  0  0
  1  2  1  0  0  0  0
  1  3  1  0  0  0  0
  1  4  1  0  0  0  0
  1  5  1  0  0  0  0
  5  6  1  0  0  0  0
  5  7  1  0  0  0  0
  5  8  1  0  0  0  0
  8  9  1  0  0  0  0
  9 10  2  0  0  0  0
  9 11  1  0  0  0  0
 11 12  1  0  0  0  0
 11 13  1  0  0  0  0
 11 14  1  0  0  0  0
 14 15  2  0  0  0  0
 14 16  1  0  0  0  0
 16 17  1  0  0  0  0
 17 18  1  0  0  0  0
 17 19  2  0  0  0  0
 19 20  1  0  0  0  0
 19 21  1  0  0  0  0
 21 22  1  0  0  0  0
 22 23  1  0  0  0  0
 23 24  1  0  0  0  0
 23 25  1  0  0  0  0
 23 26  1  0  0  0  0
 21 27  2  0  0  0  0
 27 28  1  0  0  0  0
 27 29  1  0  0  0  0
 29 16  2  0  0  0  0
 29 30  1  0  0  0  0
M  END
> <ChemID>
201825

> <source_casrn>
2881-83-6

> <CAS>
2881-83-6

> <SMILES>
CCOC(=O)CC(=O)c1ccc(OC)cc1

> <NAME>


> <preferred_name>
Benzenepropanoic acid, 4-methoxy-.beta.-oxo-, ethyl ester

> <iupac>
ethyl 3-(4-methoxyphenyl)-3-oxopropanoate

> <MPID>
101473

> <dsstox_substance_id>
DTXSID5062683

> <Canonical_QSARr>
COc1ccc(cc1)C(=O)CC(=O)OCC

> <InChI_Code_QSARr>
InChI=1S/C12H14O4/c1-3-16-12(14)8-11(13)9-4-6-10(15-2)7-5-9/h4-7H,3,8H2,1-2H3

> <InChI Key_QSARr>
KRAHENMBSVAAHD-UHFFFAOYSA-N

> <Salt_Solvent>


> <Ready_Biodeg>
1.0

$$$$
201841
  -INDIGO-08031722522D

 52 53  0  0  0  0  0  0  0  0999 V2000
   -8.1321   -1.7285    0.0000 O   0  0  0  0  0  0  0  0  0  0  0  0
   -7.3747   -2.3124    0.0000 H   0  0  0  0  0  0  0  0  0  0  0  0
   -6.9431   -0.6580    0.0000 P   0  0  0  0  0  0  0  0  0  0  0  0
   -8.4650   -0.1635    0.0000 O   0  0  0  0  0  0  0  0  0  0  0  0
   -9.8216   -1.0113    0.0000 N   0  0  0  0  0  0  0  0  0  0  0  0
  -11.3053   -1.6108    0.0000 C   0  0  0  0  0  0  0  0  0  0  0  0
  -12.7887   -2.2100    0.0000 H   0  0  0  0  0  0  0  0  0  0  0  0
  -12.5660   -0.6256    0.0000 H   0  0  0  0  0  0  0  0  0  0  0  0
  -11.5280   -3.1952    0.0000 H   0  0  0  0  0  0  0  0  0  0  0  0
  -10.6695    0.3455    0.0000 C   0  0  0  0  0  0  0  0  0  0  0  0
  -11.5173    1.7024    0.0000 H   0  0  0  0  0  0  0  0  0  0  0  0
   -9.9185    1.7583    0.0000 H   0  0  0  0  0  0  0  0  0  0  0  0
  -12.2685    0.2896    0.0000 H   0  0  0  0  0  0  0  0  0  0  0  0
   -8.9738   -2.3682    0.0000 C   0  0  0  0  0  0  0  0  0  0  0  0
   -9.7251   -3.7810    0.0000 H   0  0  0  0  0  0  0  0  0  0  0  0
   -8.2226   -2.9600    0.0000 H   0  0  0  0  0  0  0  0  0  0  0  0
  -10.5729   -2.4241    0.0000 H   0  0  0  0  0  0  0  0  0  0  0  0
   -5.7540    0.4127    0.0000 O   0  0  0  0  0  0  0  0  0  0  0  0
   -4.2323   -0.0818    0.0000 P   0  0  0  0  0  0  0  0  0  0  0  0
   -5.4214   -1.1523    0.0000 O   0  0  0  0  0  0  0  0  0  0  0  0
   -5.0889   -2.7173    0.0000 H   0  0  0  0  0  0  0  0  0  0  0  0
   -4.5652    1.4832    0.0000 O   0  0  0  0  0  0  0  0  0  0  0  0
   -2.7107   -0.5761    0.0000 O   0  0  0  0  0  0  0  0  0  0  0  0
   -1.5216    0.4944    0.0000 C   0  0  0  0  0  0  0  0  0  0  0  0
   -1.2300    2.0677    0.0000 H   0  0  0  0  0  0  0  0  0  0  0  0
   -2.4278    1.8130    0.0000 H   0  0  0  0  0  0  0  0  0  0  0  0
   -0.0000    0.0001    0.0000 C   0  0  0  0  0  0  0  0  0  0  0  0
   -0.6508   -1.4617    0.0000 H   0  0  0  0  0  0  0  0  0  0  0  0
    0.3328    1.5651    0.0000 O   0  0  0  0  0  0  0  0  0  0  0  0
    1.9238    1.7324    0.0000 C   0  0  0  0  0  0  0  0  0  0  0  0
    1.5913    3.2974    0.0000 H   0  0  0  0  0  0  0  0  0  0  0  0
    3.1848    2.7173    0.0000 N   0  0  0  0  0  0  0  0  0  0  0  0
    2.9622    4.3017    0.0000 C   0  0  0  0  0  0  0  0  0  0  0  0
    1.4785    4.9011    0.0000 H   0  0  0  0  0  0  0  0  0  0  0  0
    4.2229    5.2868    0.0000 C   0  0  0  0  0  0  0  0  0  0  0  0
    4.0002    6.8712    0.0000 H   0  0  0  0  0  0  0  0  0  0  0  0
    5.7062    4.6874    0.0000 C   0  0  0  0  0  0  0  0  0  0  0  0
    6.9673    5.6725    0.0000 N   0  0  0  0  0  0  0  0  0  0  0  0
    8.4507    5.0731    0.0000 H   0  0  0  0  0  0  0  0  0  0  0  0
    6.7446    7.2569    0.0000 H   0  0  0  0  0  0  0  0  0  0  0  0
    5.9289    3.1030    0.0000 N   0  0  0  0  0  0  0  0  0  0  0  0
    4.6682    2.1180    0.0000 C   0  0  0  0  0  0  0  0  0  0  0  0
    4.8908    0.5335    0.0000 O   0  0  0  0  0  0  0  0  0  0  0  0
    2.5745    0.2706    0.0000 C   0  0  0  0  0  0  0  0  0  0  0  0
    3.9604    1.0706    0.0000 H   0  0  0  0  0  0  0  0  0  0  0  0
    3.5151   -1.0238    0.0000 O   0  0  0  0  0  0  0  0  0  0  0  0
    5.1064   -0.8566    0.0000 H   0  0  0  0  0  0  0  0  0  0  0  0
    1.3858   -0.8000    0.0000 C   0  0  0  0  0  0  0  0  0  0  0  0
    0.4453   -2.0945    0.0000 H   0  0  0  0  0  0  0  0  0  0  0  0
    2.5745   -1.8707    0.0000 O   0  0  0  0  0  0  0  0  0  0  0  0
    2.2420   -3.4357    0.0000 H   0  0  0  0  0  0  0  0  0  0  0  0
   -7.2759    0.9071    0.0000 O   0  0  0  0  0  0  0  0  0  0  0  0
  1  2  1  0  0  0  0
  1  3  1  0  0  0  0
  3  4  1  0  0  0  0
  4  5  1  0  0  0  0
  5  6  1  0  0  0  0
  6  7  1  0  0  0  0
  6  8  1  0  0  0  0
  6  9  1  0  0  0  0
  5 10  1  0  0  0  0
 10 11  1  0  0  0  0
 10 12  1  0  0  0  0
 10 13  1  0  0  0  0
  5 14  1  0  0  0  0
 14 15  1  0  0  0  0
 14 16  1  0  0  0  0
 14 17  1  0  0  0  0
  3 18  1  0  0  0  0
 18 19  1  0  0  0  0
 19 20  1  0  0  0  0
 20 21  1  0  0  0  0
 19 22  2  0  0  0  0
 19 23  1  0  0  0  0
 23 24  1  0  0  0  0
 24 25  1  0  0  0  0
 24 26  1  0  0  0  0
 24 27  1  0  0  0  0
 27 28  1  0  0  0  0
 27 29  1  0  0  0  0
 29 30  1  0  0  0  0
 30 31  1  0  0  0  0
 30 32  1  0  0  0  0
 32 33  1  0  0  0  0
 33 34  1  0  0  0  0
 33 35  2  0  0  0  0
 35 36  1  0  0  0  0
 35 37  1  0  0  0  0
 37 38  1  0  0  0  0
 38 39  1  0  0  0  0
 38 40  1  0  0  0  0
 37 41  2  0  0  0  0
 41 42  1  0  0  0  0
 42 32  1  0  0  0  0
 42 43  2  0  0  0  0
 30 44  1  0  0  0  0
 44 45  1  0  0  0  0
 44 46  1  0  0  0  0
 46 47  1  0  0  0  0
 44 48  1  0  0  0  0
 48 27  1  0  0  0  0
 48 49  1  0  0  0  0
 48 50  1  0  0  0  0
 50 51  1  0  0  0  0
  3 52  2  0  0  0  0
M  CHG  1   5   1
M  END
> <ChemID>
201841

> <source_casrn>
987-78-0

> <CAS>
987-78-0

> <SMILES>
C[N+](C)(C)O[P]([O-])(=O)O[P](O)(=O)OC[C@H]1O[C@H]([C@H](O)[C@@H]1O)N2C=CC(=NC2=O)N

> <NAME>


> <preferred_name>
Citicoline

> <iupac>
5'-O-[hydroxy({hydroxy[2-(trimethylammonio)ethoxy]phosphoryl}oxy)phosphoryl]cytidine

> <MPID>
101479

> <dsstox_substance_id>
DTXSID9048431

> <Canonical_QSARr>
C[N+](C)(C)OP(O)(=O)OP(O)(=O)OCC1OC(C(O)C1O)N1C=CC(N)=NC1=O

> <InChI_Code_QSARr>
InChI=1S/C12H22N4O11P2/c1-16(2,3)26-29(22,23)27-28(20,21)24-6-7-9(17)10(18)11(25-7)15-5-4-8(13)14-12(15)19/h4-5,7,9-11,17-18H,6H2,1-3H3,(H3-,13,14,19,20,21,22,23)/p+1

> <InChI Key_QSARr>
OPDHNBAEGPICKZ-UHFFFAOYSA-O

> <Salt_Solvent>


> <Ready_Biodeg>
1.0

$$$$
201849
  -INDIGO-08031722522D

 12 12  0  0  0  0  0  0  0  0999 V2000
    1.4617    0.6508    0.0000 C   0  0  0  0  0  0  0  0  0  0  0  0
    2.9233    1.3016    0.0000 H   0  0  0  0  0  0  0  0  0  0  0  0
    2.7561   -0.2896    0.0000 H   0  0  0  0  0  0  0  0  0  0  0  0
    1.6290    2.2420    0.0000 H   0  0  0  0  0  0  0  0  0  0  0  0
    0.0000   -0.0000    0.0000 C   0  0  0  0  0  0  0  0  0  0  0  0
   -0.3327   -1.5650    0.0000 C   0  0  0  0  0  0  0  0  0  0  0  0
    0.7380   -2.7541    0.0000 H   0  0  0  0  0  0  0  0  0  0  0  0
   -1.9238   -1.7323    0.0000 S   0  0  0  0  0  0  0  0  0  0  0  0
   -2.5747   -0.2706    0.0000 C   0  0  0  0  0  0  0  0  0  0  0  0
   -4.1397    0.0621    0.0000 H   0  0  0  0  0  0  0  0  0  0  0  0
   -1.3856    0.8000    0.0000 C   0  0  0  0  0  0  0  0  0  0  0  0
   -1.5529    2.3912    0.0000 H   0  0  0  0  0  0  0  0  0  0  0  0
  1  2  1  0  0  0  0
  1  3  1  0  0  0  0
  1  4  1  0  0  0  0
  1  5  1  0  0  0  0
  5  6  2  0  0  0  0
  6  7  1  0  0  0  0
  6  8  1  0  0  0  0
  8  9  1  0  0  0  0
  9 10  1  0  0  0  0
  9 11  2  0  0  0  0
 11  5  1  0  0  0  0
 11 12  1  0  0  0  0
M  END
> <ChemID>
201849

> <source_casrn>
616-44-4

> <CAS>
616-44-4

> <SMILES>
Cc1cscc1

> <NAME>


> <preferred_name>
Thiophene, 3-methyl-

> <iupac>
3-Methylthiophene

> <MPID>
101484

> <dsstox_substance_id>
DTXSID8060666

> <Canonical_QSARr>
Cc1c[s]cc1

> <InChI_Code_QSARr>
InChI=1S/C5H6S/c1-5-2-3-6-4-5/h2-4H,1H3

> <InChI Key_QSARr>
QENGPZGAWFQWCZ-UHFFFAOYSA-N

> <Salt_Solvent>


> <Ready_Biodeg>
0.0

$$$$
201857
  -INDIGO-08031722522D

 31 32  0  0  0  0  0  0  0  0999 V2000
    3.2001    2.7712    0.0000 C   0  0  0  0  0  0  0  0  0  0  0  0
    4.0000    4.1570    0.0000 H   0  0  0  0  0  0  0  0  0  0  0  0
    4.8000    2.7712    0.0000 H   0  0  0  0  0  0  0  0  0  0  0  0
    2.3999    4.1570    0.0000 H   0  0  0  0  0  0  0  0  0  0  0  0
    2.3999    1.3856    0.0000 C   0  0  0  0  0  0  0  0  0  0  0  0
    3.2001    0.0000    0.0000 C   0  0  0  0  0  0  0  0  0  0  0  0
    4.8000    0.0000    0.0000 H   0  0  0  0  0  0  0  0  0  0  0  0
    2.3999   -1.3856    0.0000 C   0  0  0  0  0  0  0  0  0  0  0  0
    3.2001   -2.7713    0.0000 H   0  0  0  0  0  0  0  0  0  0  0  0
    0.8000   -1.3856    0.0000 C   0  0  0  0  0  0  0  0  0  0  0  0
    0.0000   -2.7713    0.0000 C   0  0  0  0  0  0  0  0  0  0  0  0
   -0.7999   -4.1569    0.0000 H   0  0  0  0  0  0  0  0  0  0  0  0
    0.8000   -4.1569    0.0000 H   0  0  0  0  0  0  0  0  0  0  0  0
   -1.5999   -2.7713    0.0000 H   0  0  0  0  0  0  0  0  0  0  0  0
    0.0000    0.0000    0.0000 C   0  0  0  0  0  0  0  0  0  0  0  0
   -1.5999    0.0000    0.0000 C   0  0  0  0  0  0  0  0  0  0  0  0
   -2.8694   -0.9740    0.0000 H   0  0  0  0  0  0  0  0  0  0  0  0
   -1.8089   -1.5864    0.0000 H   0  0  0  0  0  0  0  0  0  0  0  0
   -2.8256    1.0285    0.0000 C   0  0  0  0  0  0  0  0  0  0  0  0
   -2.5479    2.6042    0.0000 C   0  0  0  0  0  0  0  0  0  0  0  0
   -1.0444    3.1513    0.0000 H   0  0  0  0  0  0  0  0  0  0  0  0
   -3.7734    3.6326    0.0000 C   0  0  0  0  0  0  0  0  0  0  0  0
   -3.4957    5.2083    0.0000 H   0  0  0  0  0  0  0  0  0  0  0  0
   -5.2769    3.0853    0.0000 C   0  0  0  0  0  0  0  0  0  0  0  0
   -6.5027    4.1138    0.0000 H   0  0  0  0  0  0  0  0  0  0  0  0
   -5.5549    1.5097    0.0000 C   0  0  0  0  0  0  0  0  0  0  0  0
   -7.0584    0.9625    0.0000 H   0  0  0  0  0  0  0  0  0  0  0  0
   -4.3291    0.4812    0.0000 C   0  0  0  0  0  0  0  0  0  0  0  0
   -4.6071   -1.0945    0.0000 H   0  0  0  0  0  0  0  0  0  0  0  0
    0.8000    1.3856    0.0000 C   0  0  0  0  0  0  0  0  0  0  0  0
    0.0000    2.7712    0.0000 H   0  0  0  0  0  0  0  0  0  0  0  0
  1  2  1  0  0  0  0
  1  3  1  0  0  0  0
  1  4  1  0  0  0  0
  1  5  1  0  0  0  0
  5  6  1  0  0  0  0
  6  7  1  0  0  0  0
  6  8  2  0  0  0  0
  8  9  1  0  0  0  0
  8 10  1  0  0  0  0
 10 11  1  0  0  0  0
 11 12  1  0  0  0  0
 11 13  1  0  0  0  0
 11 14  1  0  0  0  0
 10 15  2  0  0  0  0
 15 16  1  0  0  0  0
 16 17  1  0  0  0  0
 16 18  1  0  0  0  0
 16 19  1  0  0  0  0
 19 20  1  0  0  0  0
 20 21  1  0  0  0  0
 20 22  2  0  0  0  0
 22 23  1  0  0  0  0
 22 24  1  0  0  0  0
 24 25  1  0  0  0  0
 24 26  2  0  0  0  0
 26 27  1  0  0  0  0
 26 28  1  0  0  0  0
 28 19  2  0  0  0  0
 28 29  1  0  0  0  0
 15 30  1  0  0  0  0
 30  5  2  0  0  0  0
 30 31  1  0  0  0  0
M  END
> <ChemID>
201857

> <source_casrn>
13540-50-6

> <CAS>
13540-50-6

> <SMILES>
Cc1ccc(C)c(Cc2ccccc2)c1

> <NAME>


> <preferred_name>
2,5-Dimethyldiphenylmethane

> <iupac>
1,4-dimethyl-2-(phenylmethyl)benzene

> <MPID>
101487

> <dsstox_substance_id>
DTXSID10159331

> <Canonical_QSARr>
Cc1cc(Cc2ccccc2)c(C)cc1

> <InChI_Code_QSARr>
InChI=1S/C15H16/c1-12-8-9-13(2)15(10-12)11-14-6-4-3-5-7-14/h3-10H,11H2,1-2H3

> <InChI Key_QSARr>
LJBGURBFHJJQQU-UHFFFAOYSA-N

> <Salt_Solvent>


> <Ready_Biodeg>
0.0

$$$$
201885
  -INDIGO-08031722522D

 47 49  0  0  0  0  0  0  0  0999 V2000
   10.3999   -1.3856    0.0000 C   0  0  0  0  0  0  0  0  0  0  0  0
   12.0000   -1.3856    0.0000 H   0  0  0  0  0  0  0  0  0  0  0  0
   11.2000   -2.7713    0.0000 H   0  0  0  0  0  0  0  0  0  0  0  0
   11.2000    0.0000    0.0000 H   0  0  0  0  0  0  0  0  0  0  0  0
    8.8001   -1.3856    0.0000 C   0  0  0  0  0  0  0  0  0  0  0  0
    8.0001   -2.7713    0.0000 C   0  0  0  0  0  0  0  0  0  0  0  0
    8.8001   -4.1570    0.0000 H   0  0  0  0  0  0  0  0  0  0  0  0
    6.4000   -2.7713    0.0000 C   0  0  0  0  0  0  0  0  0  0  0  0
    5.6000   -4.1570    0.0000 N   0  0  0  0  0  0  0  0  0  0  0  0
    3.9999   -4.1570    0.0000 C   0  0  0  0  0  0  0  0  0  0  0  0
    3.1999   -5.5426    0.0000 C   0  0  0  0  0  0  0  0  0  0  0  0
    3.9999   -6.9282    0.0000 O   0  0  0  0  0  0  0  0  0  0  0  0
    1.6001   -5.5426    0.0000 N   0  0  0  0  0  0  0  0  0  0  0  0
    0.8000   -6.9282    0.0000 H   0  0  0  0  0  0  0  0  0  0  0  0
    0.8000   -4.1570    0.0000 C   0  0  0  0  0  0  0  0  0  0  0  0
   -0.8000   -4.1570    0.0000 O   0  0  0  0  0  0  0  0  0  0  0  0
    1.6001   -2.7713    0.0000 N   0  0  0  0  0  0  0  0  0  0  0  0
    3.2001   -2.7713    0.0000 C   0  0  0  0  0  0  0  0  0  0  0  0
    3.9999   -1.3856    0.0000 N   0  0  0  0  0  0  0  0  0  0  0  0
    3.2001    0.0000    0.0000 C   0  0  0  0  0  0  0  0  0  0  0  0
    3.4088    1.5864    0.0000 H   0  0  0  0  0  0  0  0  0  0  0  0
    4.4693    0.9741    0.0000 H   0  0  0  0  0  0  0  0  0  0  0  0
    1.6001    0.0000    0.0000 C   0  0  0  0  0  0  0  0  0  0  0  0
    1.6001   -1.6000    0.0000 H   0  0  0  0  0  0  0  0  0  0  0  0
    1.6001    1.6000    0.0000 O   0  0  0  0  0  0  0  0  0  0  0  0
    2.8258    2.6285    0.0000 H   0  0  0  0  0  0  0  0  0  0  0  0
   -0.0000    0.0000    0.0000 C   0  0  0  0  0  0  0  0  0  0  0  0
   -0.0000   -1.6000    0.0000 H   0  0  0  0  0  0  0  0  0  0  0  0
   -0.0000    1.6000    0.0000 O   0  0  0  0  0  0  0  0  0  0  0  0
   -1.2257    2.6285    0.0000 H   0  0  0  0  0  0  0  0  0  0  0  0
   -1.6001    0.0000    0.0000 C   0  0  0  0  0  0  0  0  0  0  0  0
   -1.6001    1.6000    0.0000 H   0  0  0  0  0  0  0  0  0  0  0  0
   -1.6001   -1.6000    0.0000 O   0  0  0  0  0  0  0  0  0  0  0  0
   -2.9856   -2.4000    0.0000 H   0  0  0  0  0  0  0  0  0  0  0  0
   -3.1999    0.0000    0.0000 C   0  0  0  0  0  0  0  0  0  0  0  0
   -3.4088    1.5864    0.0000 H   0  0  0  0  0  0  0  0  0  0  0  0
   -4.4694    0.9741    0.0000 H   0  0  0  0  0  0  0  0  0  0  0  0
   -3.9999   -1.3856    0.0000 O   0  0  0  0  0  0  0  0  0  0  0  0
   -5.6000   -1.3856    0.0000 H   0  0  0  0  0  0  0  0  0  0  0  0
    5.6000   -1.3856    0.0000 C   0  0  0  0  0  0  0  0  0  0  0  0
    6.4000    0.0000    0.0000 C   0  0  0  0  0  0  0  0  0  0  0  0
    5.6000    1.3857    0.0000 H   0  0  0  0  0  0  0  0  0  0  0  0
    8.0001    0.0000    0.0000 C   0  0  0  0  0  0  0  0  0  0  0  0
    8.8001    1.3857    0.0000 C   0  0  0  0  0  0  0  0  0  0  0  0
    9.5999    2.7713    0.0000 H   0  0  0  0  0  0  0  0  0  0  0  0
   10.3999    1.3857    0.0000 H   0  0  0  0  0  0  0  0  0  0  0  0
    8.0001    2.7713    0.0000 H   0  0  0  0  0  0  0  0  0  0  0  0
  1  2  1  0  0  0  0
  1  3  1  0  0  0  0
  1  4  1  0  0  0  0
  1  5  1  0  0  0  0
  5  6  2  0  0  0  0
  6  7  1  0  0  0  0
  6  8  1  0  0  0  0
  8  9  1  0  0  0  0
  9 10  2  0  0  0  0
 10 11  1  0  0  0  0
 11 12  2  0  0  0  0
 11 13  1  0  0  0  0
 13 14  1  0  0  0  0
 13 15  1  0  0  0  0
 15 16  2  0  0  0  0
 15 17  1  0  0  0  0
 17 18  2  0  0  0  0
 18 10  1  0  0  0  0
 18 19  1  0  0  0  0
 19 20  1  0  0  0  0
 20 21  1  0  0  0  0
 20 22  1  0  0  0  0
 20 23  1  0  0  0  0
 23 24  1  0  0  0  0
 23 25  1  0  0  0  0
 25 26  1  0  0  0  0
 23 27  1  0  0  0  0
 27 28  1  0  0  0  0
 27 29  1  0  0  0  0
 29 30  1  0  0  0  0
 27 31  1  0  0  0  0
 31 32  1  0  0  0  0
 31 33  1  0  0  0  0
 33 34  1  0  0  0  0
 31 35  1  0  0  0  0
 35 36  1  0  0  0  0
 35 37  1  0  0  0  0
 35 38  1  0  0  0  0
 38 39  1  0  0  0  0
 19 40  1  0  0  0  0
 40  8  2  0  0  0  0
 40 41  1  0  0  0  0
 41 42  1  0  0  0  0
 41 43  2  0  0  0  0
 43  5  1  0  0  0  0
 43 44  1  0  0  0  0
 44 45  1  0  0  0  0
 44 46  1  0  0  0  0
 44 47  1  0  0  0  0
M  END
> <ChemID>
201885

> <source_casrn>
83-88-5

> <CAS>
83-88-5

> <SMILES>
Cc1cc2N=C3C(=O)NC(=O)N=C3N(C[C@H](O)[C@H](O)[C@H](O)CO)c2cc1C

> <NAME>


> <preferred_name>
Riboflavin

> <iupac>
1-deoxy-1-(7,8-dimethyl-2,4-dioxo-3,4-dihydrobenzo[g]pteridin-10(2H)-yl)-D-ribitol

> <MPID>
101498

> <dsstox_substance_id>
DTXSID8021777

> <Canonical_QSARr>
Cc1cc2c(cc1C)N=C1C(=NC(=O)NC1=O)N2CC(O)C(O)C(O)CO

> <InChI_Code_QSARr>
InChI=1S/C17H20N4O6/c1-7-3-9-10(4-8(7)2)21(5-11(23)14(25)12(24)6-22)15-13(18-9)16(26)20-17(27)19-15/h3-4,11-12,14,22-25H,5-6H2,1-2H3,(H,20,26,27)

> <InChI Key_QSARr>
AUNGANRZJHBGPY-UHFFFAOYSA-N

> <Salt_Solvent>


> <Ready_Biodeg>
0.0

$$$$
201897
  -INDIGO-08031722522D

 28 28  0  0  0  0  0  0  0  0999 V2000
    6.4000   -0.0000    0.0000 C   0  0  0  0  0  0  0  0  0  0  0  0
    8.0000   -0.0000    0.0000 H   0  0  0  0  0  0  0  0  0  0  0  0
    7.2000    1.3856    0.0000 H   0  0  0  0  0  0  0  0  0  0  0  0
    7.2000   -1.3857    0.0000 H   0  0  0  0  0  0  0  0  0  0  0  0
    4.8000   -0.0000    0.0000 C   0  0  0  0  0  0  0  0  0  0  0  0
    4.0001    1.3856    0.0000 C   0  0  0  0  0  0  0  0  0  0  0  0
    4.8000    2.7713    0.0000 H   0  0  0  0  0  0  0  0  0  0  0  0
    2.4001    1.3856    0.0000 C   0  0  0  0  0  0  0  0  0  0  0  0
    1.5999    2.7713    0.0000 H   0  0  0  0  0  0  0  0  0  0  0  0
    1.5999   -0.0000    0.0000 C   0  0  0  0  0  0  0  0  0  0  0  0
   -0.0000   -0.0000    0.0000 C   0  0  0  0  0  0  0  0  0  0  0  0
   -1.6000   -0.0000    0.0000 C   0  0  0  0  0  0  0  0  0  0  0  0
   -3.2000   -0.0000    0.0000 H   0  0  0  0  0  0  0  0  0  0  0  0
   -2.6285    1.2257    0.0000 H   0  0  0  0  0  0  0  0  0  0  0  0
   -2.6285   -1.2257    0.0000 H   0  0  0  0  0  0  0  0  0  0  0  0
   -0.0000    1.6000    0.0000 C   0  0  0  0  0  0  0  0  0  0  0  0
    0.2778    3.1757    0.0000 H   0  0  0  0  0  0  0  0  0  0  0  0
   -1.2258    2.6284    0.0000 H   0  0  0  0  0  0  0  0  0  0  0  0
   -1.5035    1.0527    0.0000 H   0  0  0  0  0  0  0  0  0  0  0  0
   -0.0000   -1.6000    0.0000 C   0  0  0  0  0  0  0  0  0  0  0  0
    0.2778   -3.1757    0.0000 H   0  0  0  0  0  0  0  0  0  0  0  0
   -1.2258   -2.6284    0.0000 H   0  0  0  0  0  0  0  0  0  0  0  0
   -1.5035   -1.0528    0.0000 H   0  0  0  0  0  0  0  0  0  0  0  0
    2.4001   -1.3857    0.0000 C   0  0  0  0  0  0  0  0  0  0  0  0
    1.5999   -2.7713    0.0000 O   0  0  0  0  0  0  0  0  0  0  0  0
    2.3999   -4.1569    0.0000 H   0  0  0  0  0  0  0  0  0  0  0  0
    4.0001   -1.3857    0.0000 C   0  0  0  0  0  0  0  0  0  0  0  0
    4.8000   -2.7713    0.0000 H   0  0  0  0  0  0  0  0  0  0  0  0
  1  2  1  0  0  0  0
  1  3  1  0  0  0  0
  1  4  1  0  0  0  0
  1  5  1  0  0  0  0
  5  6  1  0  0  0  0
  6  7  1  0  0  0  0
  6  8  2  0  0  0  0
  8  9  1  0  0  0  0
  8 10  1  0  0  0  0
 10 11  1  0  0  0  0
 11 12  1  0  0  0  0
 12 13  1  0  0  0  0
 12 14  1  0  0  0  0
 12 15  1  0  0  0  0
 11 16  1  0  0  0  0
 16 17  1  0  0  0  0
 16 18  1  0  0  0  0
 16 19  1  0  0  0  0
 11 20  1  0  0  0  0
 20 21  1  0  0  0  0
 20 22  1  0  0  0  0
 20 23  1  0  0  0  0
 10 24  2  0  0  0  0
 24 25  1  0  0  0  0
 25 26  1  0  0  0  0
 24 27  1  0  0  0  0
 27  5  2  0  0  0  0
 27 28  1  0  0  0  0
M  END
> <ChemID>
201897

> <source_casrn>
88-60-8

> <CAS>
88-60-8

> <SMILES>
Cc1ccc(c(O)c1)C(C)(C)C

> <NAME>


> <preferred_name>
2-tert-Butyl-5-methylphenol

> <iupac>
2-tert-butyl-5-methylphenol

> <MPID>
101504

> <dsstox_substance_id>
DTXSID2026529

> <Canonical_QSARr>
Cc1ccc(c(O)c1)C(C)(C)C

> <InChI_Code_QSARr>
InChI=1S/C11H16O/c1-8-5-6-9(10(12)7-8)11(2,3)4/h5-7,12H,1-4H3

> <InChI Key_QSARr>
XOUQAVYLRNOXDO-UHFFFAOYSA-N

> <Salt_Solvent>


> <Ready_Biodeg>
0.0

$$$$
201905
  -INDIGO-08031722522D

 17 17  0  0  0  0  0  0  0  0999 V2000
    1.6001   -0.0000    0.0000 C   0  0  0  0  0  0  0  0  0  0  0  0
    3.2000   -0.0000    0.0000 H   0  0  0  0  0  0  0  0  0  0  0  0
    2.4000   -1.3856    0.0000 H   0  0  0  0  0  0  0  0  0  0  0  0
    2.4000    1.3856    0.0000 H   0  0  0  0  0  0  0  0  0  0  0  0
   -0.0000   -0.0000    0.0000 C   0  0  0  0  0  0  0  0  0  0  0  0
   -0.8000    1.3856    0.0000 C   0  0  0  0  0  0  0  0  0  0  0  0
   -0.0000    2.7713    0.0000 H   0  0  0  0  0  0  0  0  0  0  0  0
   -2.4000    1.3856    0.0000 C   0  0  0  0  0  0  0  0  0  0  0  0
   -3.2000    2.7713    0.0000 H   0  0  0  0  0  0  0  0  0  0  0  0
   -3.2000   -0.0000    0.0000 C   0  0  0  0  0  0  0  0  0  0  0  0
   -4.8000   -0.0000    0.0000 N   0  0  0  0  0  0  0  0  0  0  0  0
   -5.6000    1.3856    0.0000 O   0  0  0  0  0  0  0  0  0  0  0  0
   -5.6000   -1.3856    0.0000 O   0  0  0  0  0  0  0  0  0  0  0  0
   -2.4000   -1.3856    0.0000 C   0  0  0  0  0  0  0  0  0  0  0  0
   -3.2000   -2.7713    0.0000 H   0  0  0  0  0  0  0  0  0  0  0  0
   -0.8000   -1.3856    0.0000 C   0  0  0  0  0  0  0  0  0  0  0  0
   -0.0000   -2.7713    0.0000 Cl  0  0  0  0  0  0  0  0  0  0  0  0
  1  2  1  0  0  0  0
  1  3  1  0  0  0  0
  1  4  1  0  0  0  0
  1  5  1  0  0  0  0
  5  6  1  0  0  0  0
  6  7  1  0  0  0  0
  6  8  2  0  0  0  0
  8  9  1  0  0  0  0
  8 10  1  0  0  0  0
 10 11  1  0  0  0  0
 11 12  1  0  0  0  0
 11 13  2  0  0  0  0
 10 14  2  0  0  0  0
 14 15  1  0  0  0  0
 14 16  1  0  0  0  0
 16  5  2  0  0  0  0
 16 17  1  0  0  0  0
M  CHG  2  11   1  12  -1
M  END
> <ChemID>
201905

> <source_casrn>
121-86-8

> <CAS>
121-86-8

> <SMILES>
Cc1ccc(cc1Cl)[N+]([O-])=O

> <NAME>


> <preferred_name>
2-Chloro-1-methyl-4-nitrobenzene

> <iupac>
2-chloro-1-methyl-4-nitrobenzene

> <MPID>
101507

> <dsstox_substance_id>
DTXSID3026984

> <Canonical_QSARr>
Cc1ccc(cc1Cl)[N+]([O-])=O

> <InChI_Code_QSARr>
InChI=1S/C7H6ClNO2/c1-5-2-3-6(9(10)11)4-7(5)8/h2-4H,1H3

> <InChI Key_QSARr>
LLYXJBROWQDVMI-UHFFFAOYSA-N

> <Salt_Solvent>


> <Ready_Biodeg>
0.0

$$$$
201909
  -INDIGO-08031722522D

 19 19  0  0  0  0  0  0  0  0999 V2000
    1.3857    0.8000    0.0000 C   0  0  0  0  0  0  0  0  0  0  0  0
    2.7713    1.6000    0.0000 H   0  0  0  0  0  0  0  0  0  0  0  0
    1.3857    2.4000    0.0000 H   0  0  0  0  0  0  0  0  0  0  0  0
    2.7713   -0.0000    0.0000 H   0  0  0  0  0  0  0  0  0  0  0  0
    0.0000   -0.0000    0.0000 C   0  0  0  0  0  0  0  0  0  0  0  0
   -1.3857    0.8000    0.0000 C   0  0  0  0  0  0  0  0  0  0  0  0
   -1.3857    2.4000    0.0000 H   0  0  0  0  0  0  0  0  0  0  0  0
   -2.7713   -0.0000    0.0000 C   0  0  0  0  0  0  0  0  0  0  0  0
   -4.1570    0.8000    0.0000 H   0  0  0  0  0  0  0  0  0  0  0  0
   -2.7713   -1.6000    0.0000 C   0  0  0  0  0  0  0  0  0  0  0  0
   -4.1569   -2.4000    0.0000 N   0  0  0  0  0  0  0  0  0  0  0  0
   -5.5426   -1.6000    0.0000 O   0  0  0  0  0  0  0  0  0  0  0  0
   -4.1569   -4.0000    0.0000 O   0  0  0  0  0  0  0  0  0  0  0  0
   -1.3856   -2.4000    0.0000 C   0  0  0  0  0  0  0  0  0  0  0  0
   -1.3857   -4.0000    0.0000 H   0  0  0  0  0  0  0  0  0  0  0  0
    0.0000   -1.6000    0.0000 C   0  0  0  0  0  0  0  0  0  0  0  0
    1.3857   -2.4000    0.0000 N   0  0  0  0  0  0  0  0  0  0  0  0
    1.3857   -4.0000    0.0000 O   0  0  0  0  0  0  0  0  0  0  0  0
    2.7713   -1.6000    0.0000 O   0  0  0  0  0  0  0  0  0  0  0  0
  1  2  1  0  0  0  0
  1  3  1  0  0  0  0
  1  4  1  0  0  0  0
  1  5  1  0  0  0  0
  5  6  1  0  0  0  0
  6  7  1  0  0  0  0
  6  8  2  0  0  0  0
  8  9  1  0  0  0  0
  8 10  1  0  0  0  0
 10 11  1  0  0  0  0
 11 12  1  0  0  0  0
 11 13  2  0  0  0  0
 10 14  2  0  0  0  0
 14 15  1  0  0  0  0
 14 16  1  0  0  0  0
 16  5  2  0  0  0  0
 16 17  1  0  0  0  0
 17 18  1  0  0  0  0
 17 19  2  0  0  0  0
M  CHG  4  11   1  12  -1  17   1  18  -1
M  END
> <ChemID>
201909

> <source_casrn>
25321-14-6

> <CAS>
121-14-2

> <SMILES>
Cc1ccc(cc1[N+]([O-])=O)[N+]([O-])=O

> <NAME>


> <preferred_name>


> <iupac>


> <MPID>
101509

> <dsstox_substance_id>
DTXSID0020529

> <Canonical_QSARr>
Cc1ccc(cc1[N+]([O-])=O)[N+]([O-])=O

> <InChI_Code_QSARr>
InChI=1S/C7H6N2O4/c1-5-2-3-6(8(10)11)4-7(5)9(12)13/h2-4H,1H3

> <InChI Key_QSARr>
RMBFBMJGBANMMK-UHFFFAOYSA-N

> <Salt_Solvent>


> <Ready_Biodeg>
0.0

$$$$
201917
  -INDIGO-08031722522D

 21 22  0  0  0  0  0  0  0  0999 V2000
    2.4001    1.3856    0.0000 C   0  0  0  0  0  0  0  0  0  0  0  0
    3.2000    2.7713    0.0000 H   0  0  0  0  0  0  0  0  0  0  0  0
    4.0000    1.3856    0.0000 H   0  0  0  0  0  0  0  0  0  0  0  0
    1.6000    2.7713    0.0000 H   0  0  0  0  0  0  0  0  0  0  0  0
    1.6000    0.0000    0.0000 C   0  0  0  0  0  0  0  0  0  0  0  0
    2.4001   -1.3856    0.0000 C   0  0  0  0  0  0  0  0  0  0  0  0
    4.0000   -1.3856    0.0000 H   0  0  0  0  0  0  0  0  0  0  0  0
    1.6000   -2.7713    0.0000 C   0  0  0  0  0  0  0  0  0  0  0  0
    2.4001   -4.1569    0.0000 H   0  0  0  0  0  0  0  0  0  0  0  0
   -0.0000   -2.7713    0.0000 C   0  0  0  0  0  0  0  0  0  0  0  0
   -0.8000   -4.1569    0.0000 H   0  0  0  0  0  0  0  0  0  0  0  0
   -0.8000   -1.3856    0.0000 C   0  0  0  0  0  0  0  0  0  0  0  0
   -2.4000   -1.3856    0.0000 C   0  0  0  0  0  0  0  0  0  0  0  0
   -3.2001   -2.7713    0.0000 H   0  0  0  0  0  0  0  0  0  0  0  0
   -3.2001    0.0000    0.0000 C   0  0  0  0  0  0  0  0  0  0  0  0
   -4.8000    0.0000    0.0000 H   0  0  0  0  0  0  0  0  0  0  0  0
   -2.4000    1.3856    0.0000 C   0  0  0  0  0  0  0  0  0  0  0  0
   -3.2001    2.7713    0.0000 H   0  0  0  0  0  0  0  0  0  0  0  0
   -0.8000    1.3856    0.0000 C   0  0  0  0  0  0  0  0  0  0  0  0
   -0.0000    2.7713    0.0000 H   0  0  0  0  0  0  0  0  0  0  0  0
   -0.0000    0.0000    0.0000 C   0  0  0  0  0  0  0  0  0  0  0  0
  1  2  1  0  0  0  0
  1  3  1  0  0  0  0
  1  4  1  0  0  0  0
  1  5  1  0  0  0  0
  5  6  2  0  0  0  0
  6  7  1  0  0  0  0
  6  8  1  0  0  0  0
  8  9  1  0  0  0  0
  8 10  2  0  0  0  0
 10 11  1  0  0  0  0
 10 12  1  0  0  0  0
 12 13  1  0  0  0  0
 13 14  1  0  0  0  0
 13 15  2  0  0  0  0
 15 16  1  0  0  0  0
 15 17  1  0  0  0  0
 17 18  1  0  0  0  0
 17 19  2  0  0  0  0
 19 20  1  0  0  0  0
 19 21  1  0  0  0  0
 21  5  1  0  0  0  0
 21 12  2  0  0  0  0
M  END
> <ChemID>
201917

> <source_casrn>
90-12-0

> <CAS>
90-12-0

> <SMILES>
Cc1cccc2ccccc12

> <NAME>


> <preferred_name>
1-Methylnaphthalene

> <iupac>
1-methylnaphthalene

> <MPID>
101514

> <dsstox_substance_id>
DTXSID9020877

> <Canonical_QSARr>
Cc1cccc2ccccc21

> <InChI_Code_QSARr>
InChI=1S/C11H10/c1-9-5-4-7-10-6-2-3-8-11(9)10/h2-8H,1H3

> <InChI Key_QSARr>
QPUYECUOLPXSFR-UHFFFAOYSA-N

> <Salt_Solvent>


> <Ready_Biodeg>
0.0

$$$$
201925
  -INDIGO-08031722522D

 33 35  0  0  0  0  0  0  0  0999 V2000
   -1.1250    4.5442    0.0000 C   0  0  0  0  0  0  0  0  0  0  0  0
    0.3786    5.0914    0.0000 H   0  0  0  0  0  0  0  0  0  0  0  0
   -0.8471    6.1199    0.0000 H   0  0  0  0  0  0  0  0  0  0  0  0
    0.1007    3.5157    0.0000 H   0  0  0  0  0  0  0  0  0  0  0  0
   -2.6284    3.9970    0.0000 C   0  0  0  0  0  0  0  0  0  0  0  0
   -3.4284    5.3826    0.0000 C   0  0  0  0  0  0  0  0  0  0  0  0
   -2.6284    6.7682    0.0000 H   0  0  0  0  0  0  0  0  0  0  0  0
   -5.0285    5.3826    0.0000 C   0  0  0  0  0  0  0  0  0  0  0  0
   -5.8285    6.7682    0.0000 H   0  0  0  0  0  0  0  0  0  0  0  0
   -5.8285    3.9970    0.0000 C   0  0  0  0  0  0  0  0  0  0  0  0
   -7.4285    3.9970    0.0000 H   0  0  0  0  0  0  0  0  0  0  0  0
   -5.0285    2.6113    0.0000 C   0  0  0  0  0  0  0  0  0  0  0  0
   -5.8285    1.2257    0.0000 H   0  0  0  0  0  0  0  0  0  0  0  0
   -3.4284    2.6113    0.0000 C   0  0  0  0  0  0  0  0  0  0  0  0
   -2.6284    1.2257    0.0000 N   0  0  0  0  0  0  0  0  0  0  0  0
   -3.4284   -0.1599    0.0000 C   0  0  0  0  0  0  0  0  0  0  0  0
   -3.2196   -1.7463    0.0000 H   0  0  0  0  0  0  0  0  0  0  0  0
   -2.1591   -1.1340    0.0000 H   0  0  0  0  0  0  0  0  0  0  0  0
   -5.0285   -0.1599    0.0000 C   0  0  0  0  0  0  0  0  0  0  0  0
   -4.7506    1.4157    0.0000 H   0  0  0  0  0  0  0  0  0  0  0  0
   -5.8285   -1.5455    0.0000 C   0  0  0  0  0  0  0  0  0  0  0  0
   -4.6028   -2.5741    0.0000 H   0  0  0  0  0  0  0  0  0  0  0  0
   -7.0542   -2.5741    0.0000 H   0  0  0  0  0  0  0  0  0  0  0  0
   -6.6285   -0.1599    0.0000 O   0  0  0  0  0  0  0  0  0  0  0  0
   -1.0284    1.2257    0.0000 C   0  0  0  0  0  0  0  0  0  0  0  0
   -0.8196    2.8119    0.0000 H   0  0  0  0  0  0  0  0  0  0  0  0
    0.2410    2.1996    0.0000 H   0  0  0  0  0  0  0  0  0  0  0  0
    0.0000    0.0000    0.0000 C   0  0  0  0  0  0  0  0  0  0  0  0
   -1.0284   -1.2256    0.0000 H   0  0  0  0  0  0  0  0  0  0  0  0
    1.3856   -0.8000    0.0000 C   0  0  0  0  0  0  0  0  0  0  0  0
    0.8383   -2.3035    0.0000 H   0  0  0  0  0  0  0  0  0  0  0  0
    2.9613   -1.0778    0.0000 H   0  0  0  0  0  0  0  0  0  0  0  0
    1.3856    0.8000    0.0000 O   0  0  0  0  0  0  0  0  0  0  0  0
  1  2  1  0  0  0  0
  1  3  1  0  0  0  0
  1  4  1  0  0  0  0
  1  5  1  0  0  0  0
  5  6  1  0  0  0  0
  6  7  1  0  0  0  0
  6  8  2  0  0  0  0
  8  9  1  0  0  0  0
  8 10  1  0  0  0  0
 10 11  1  0  0  0  0
 10 12  2  0  0  0  0
 12 13  1  0  0  0  0
 12 14  1  0  0  0  0
 14  5  2  0  0  0  0
 14 15  1  0  0  0  0
 15 16  1  0  0  0  0
 16 17  1  0  0  0  0
 16 18  1  0  0  0  0
 16 19  1  0  0  0  0
 19 20  1  0  0  0  0
 19 21  1  0  0  0  0
 21 22  1  0  0  0  0
 21 23  1  0  0  0  0
 21 24  1  0  0  0  0
 24 19  1  0  0  0  0
 15 25  1  0  0  0  0
 25 26  1  0  0  0  0
 25 27  1  0  0  0  0
 25 28  1  0  0  0  0
 28 29  1  0  0  0  0
 28 30  1  0  0  0  0
 30 31  1  0  0  0  0
 30 32  1  0  0  0  0
 30 33  1  0  0  0  0
 33 28  1  0  0  0  0
M  END
> <ChemID>
201925

> <source_casrn>


> <CAS>
40027-50-7

> <SMILES>
Cc1ccccc1N(CC2CO2)CC3CO3

> <NAME>


> <preferred_name>


> <iupac>


> <MPID>
101516

> <dsstox_substance_id>


> <Canonical_QSARr>
Cc1ccccc1N(CC1CO1)CC1CO1

> <InChI_Code_QSARr>
InChI=1S/C13H17NO2/c1-10-4-2-3-5-13(10)14(6-11-8-15-11)7-12-9-16-12/h2-5,11-12H,6-9H2,1H3

> <InChI Key_QSARr>
OVEUFHOBGCSKSH-UHFFFAOYSA-N

> <Salt_Solvent>


> <Ready_Biodeg>
0.0

$$$$
201953
  -INDIGO-08031722522D

 26 25  0  0  0  0  0  0  0  0999 V2000
    4.1569   -2.4000    0.0000 Cl  0  0  0  0  0  0  0  0  0  0  0  0
    4.1569   -0.8000    0.0000 C   0  0  0  0  0  0  0  0  0  0  0  0
    5.5426   -1.6000    0.0000 H   0  0  0  0  0  0  0  0  0  0  0  0
    5.5426    0.0000    0.0000 H   0  0  0  0  0  0  0  0  0  0  0  0
    2.7713    0.0000    0.0000 C   0  0  0  0  0  0  0  0  0  0  0  0
    3.3835    1.4782    0.0000 H   0  0  0  0  0  0  0  0  0  0  0  0
    2.1590    1.4782    0.0000 H   0  0  0  0  0  0  0  0  0  0  0  0
    1.3856   -0.8000    0.0000 C   0  0  0  0  0  0  0  0  0  0  0  0
    0.7733   -2.2782    0.0000 H   0  0  0  0  0  0  0  0  0  0  0  0
    1.9980   -2.2782    0.0000 H   0  0  0  0  0  0  0  0  0  0  0  0
   -0.0001    0.0000    0.0000 C   0  0  0  0  0  0  0  0  0  0  0  0
    0.6123    1.4782    0.0000 H   0  0  0  0  0  0  0  0  0  0  0  0
   -0.6122    1.4782    0.0000 H   0  0  0  0  0  0  0  0  0  0  0  0
   -1.3856   -0.8000    0.0000 C   0  0  0  0  0  0  0  0  0  0  0  0
   -1.9979   -2.2782    0.0000 H   0  0  0  0  0  0  0  0  0  0  0  0
   -0.7734   -2.2782    0.0000 H   0  0  0  0  0  0  0  0  0  0  0  0
   -2.7713    0.0000    0.0000 C   0  0  0  0  0  0  0  0  0  0  0  0
   -2.1589    1.4782    0.0000 H   0  0  0  0  0  0  0  0  0  0  0  0
   -3.3836    1.4782    0.0000 H   0  0  0  0  0  0  0  0  0  0  0  0
   -4.1570   -0.8000    0.0000 C   0  0  0  0  0  0  0  0  0  0  0  0
   -4.7692   -2.2782    0.0000 H   0  0  0  0  0  0  0  0  0  0  0  0
   -3.5446   -2.2782    0.0000 H   0  0  0  0  0  0  0  0  0  0  0  0
   -5.5425    0.0000    0.0000 C   0  0  0  0  0  0  0  0  0  0  0  0
   -6.9282    0.8000    0.0000 H   0  0  0  0  0  0  0  0  0  0  0  0
   -6.9282   -0.8000    0.0000 H   0  0  0  0  0  0  0  0  0  0  0  0
   -5.5425    1.6000    0.0000 Cl  0  0  0  0  0  0  0  0  0  0  0  0
  1  2  1  0  0  0  0
  2  3  1  0  0  0  0
  2  4  1  0  0  0  0
  2  5  1  0  0  0  0
  5  6  1  0  0  0  0
  5  7  1  0  0  0  0
  5  8  1  0  0  0  0
  8  9  1  0  0  0  0
  8 10  1  0  0  0  0
  8 11  1  0  0  0  0
 11 12  1  0  0  0  0
 11 13  1  0  0  0  0
 11 14  1  0  0  0  0
 14 15  1  0  0  0  0
 14 16  1  0  0  0  0
 14 17  1  0  0  0  0
 17 18  1  0  0  0  0
 17 19  1  0  0  0  0
 17 20  1  0  0  0  0
 20 21  1  0  0  0  0
 20 22  1  0  0  0  0
 20 23  1  0  0  0  0
 23 24  1  0  0  0  0
 23 25  1  0  0  0  0
 23 26  1  0  0  0  0
M  END
> <ChemID>
201953

> <source_casrn>
2162-99-4

> <CAS>
2162-99-4

> <SMILES>
ClCCCCCCCCCl

> <NAME>


> <preferred_name>
Octane, 1,8-dichloro-

> <iupac>
1,8-Dichlorooctane

> <MPID>
101520

> <dsstox_substance_id>
DTXSID4062226

> <Canonical_QSARr>
ClCCCCCCCCCl

> <InChI_Code_QSARr>
InChI=1S/C8H16Cl2/c9-7-5-3-1-2-4-6-8-10/h1-8H2

> <InChI Key_QSARr>
WXYMNDFVLNUAIA-UHFFFAOYSA-N

> <Salt_Solvent>


> <Ready_Biodeg>
0.0

$$$$
201973
  -INDIGO-08031722522D

 12 12  0  0  0  0  0  0  0  0999 V2000
    0.8000    1.3856    0.0000 Cl  0  0  0  0  0  0  0  0  0  0  0  0
   -0.0000   -0.0000    0.0000 C   0  0  0  0  0  0  0  0  0  0  0  0
    0.8000   -1.3857    0.0000 C   0  0  0  0  0  0  0  0  0  0  0  0
    2.4000   -1.3857    0.0000 H   0  0  0  0  0  0  0  0  0  0  0  0
   -0.0000   -2.7713    0.0000 C   0  0  0  0  0  0  0  0  0  0  0  0
    0.8000   -4.1569    0.0000 H   0  0  0  0  0  0  0  0  0  0  0  0
   -1.6000   -2.7713    0.0000 C   0  0  0  0  0  0  0  0  0  0  0  0
   -2.4000   -4.1569    0.0000 Cl  0  0  0  0  0  0  0  0  0  0  0  0
   -2.4000   -1.3856    0.0000 C   0  0  0  0  0  0  0  0  0  0  0  0
   -4.0000   -1.3856    0.0000 H   0  0  0  0  0  0  0  0  0  0  0  0
   -1.6000   -0.0000    0.0000 C   0  0  0  0  0  0  0  0  0  0  0  0
   -2.4000    1.3856    0.0000 H   0  0  0  0  0  0  0  0  0  0  0  0
  1  2  1  0  0  0  0
  2  3  1  0  0  0  0
  3  4  1  0  0  0  0
  3  5  2  0  0  0  0
  5  6  1  0  0  0  0
  5  7  1  0  0  0  0
  7  8  1  0  0  0  0
  7  9  2  0  0  0  0
  9 10  1  0  0  0  0
  9 11  1  0  0  0  0
 11  2  2  0  0  0  0
 11 12  1  0  0  0  0
M  END
> <ChemID>
201973

> <source_casrn>
106-46-7

> <CAS>
106-46-7

> <SMILES>
Clc1ccc(Cl)cc1

> <NAME>


> <preferred_name>
1,4-Dichlorobenzene

> <iupac>
1,4-dichlorobenzene

> <MPID>
101527

> <dsstox_substance_id>
DTXSID1020431

> <Canonical_QSARr>
Clc1ccc(Cl)cc1

> <InChI_Code_QSARr>
InChI=1S/C6H4Cl2/c7-5-1-2-6(8)4-3-5/h1-4H

> <InChI Key_QSARr>
OCJBOOLMMGQPQU-UHFFFAOYSA-N

> <Salt_Solvent>


> <Ready_Biodeg>
0.0

$$$$
201978
  -INDIGO-08031722522D

 18 19  0  0  0  0  0  0  0  0999 V2000
    1.3856    2.4000    0.0000 Cl  0  0  0  0  0  0  0  0  0  0  0  0
    1.3856    0.8000    0.0000 C   0  0  0  0  0  0  0  0  0  0  0  0
    2.7713   -0.0000    0.0000 C   0  0  0  0  0  0  0  0  0  0  0  0
    4.1569    0.8000    0.0000 H   0  0  0  0  0  0  0  0  0  0  0  0
    2.7713   -1.6000    0.0000 C   0  0  0  0  0  0  0  0  0  0  0  0
    4.1569   -2.4000    0.0000 H   0  0  0  0  0  0  0  0  0  0  0  0
    1.3856   -2.4000    0.0000 C   0  0  0  0  0  0  0  0  0  0  0  0
    1.3856   -4.0000    0.0000 H   0  0  0  0  0  0  0  0  0  0  0  0
    0.0001   -1.6000    0.0000 C   0  0  0  0  0  0  0  0  0  0  0  0
   -1.3856   -2.4000    0.0000 C   0  0  0  0  0  0  0  0  0  0  0  0
   -1.3856   -4.0000    0.0000 H   0  0  0  0  0  0  0  0  0  0  0  0
   -2.7713   -1.6000    0.0000 C   0  0  0  0  0  0  0  0  0  0  0  0
   -4.1569   -2.4000    0.0000 H   0  0  0  0  0  0  0  0  0  0  0  0
   -2.7712   -0.0000    0.0000 C   0  0  0  0  0  0  0  0  0  0  0  0
   -4.1569    0.8000    0.0000 H   0  0  0  0  0  0  0  0  0  0  0  0
   -1.3856    0.8000    0.0000 C   0  0  0  0  0  0  0  0  0  0  0  0
   -1.3856    2.4000    0.0000 H   0  0  0  0  0  0  0  0  0  0  0  0
    0.0001   -0.0000    0.0000 C   0  0  0  0  0  0  0  0  0  0  0  0
  1  2  1  0  0  0  0
  2  3  2  0  0  0  0
  3  4  1  0  0  0  0
  3  5  1  0  0  0  0
  5  6  1  0  0  0  0
  5  7  2  0  0  0  0
  7  8  1  0  0  0  0
  7  9  1  0  0  0  0
  9 10  1  0  0  0  0
 10 11  1  0  0  0  0
 10 12  2  0  0  0  0
 12 13  1  0  0  0  0
 12 14  1  0  0  0  0
 14 15  1  0  0  0  0
 14 16  2  0  0  0  0
 16 17  1  0  0  0  0
 16 18  1  0  0  0  0
 18  2  1  0  0  0  0
 18  9  2  0  0  0  0
M  END
> <ChemID>
201978

> <source_casrn>
90-13-1

> <CAS>
90-13-1

> <SMILES>
Clc1cccc2ccccc12

> <NAME>


> <preferred_name>
1-Chloronaphthalene

> <iupac>
C10H7Cl

> <MPID>
101530

> <dsstox_substance_id>
DTXSID2024791

> <Canonical_QSARr>
Clc1cccc2ccccc21

> <InChI_Code_QSARr>
InChI=1S/C10H7Cl/c11-10-7-3-5-8-4-1-2-6-9(8)10/h1-7H

> <InChI Key_QSARr>
JTPNRXUCIXHOKM-UHFFFAOYSA-N

> <Salt_Solvent>


> <Ready_Biodeg>
0.0

$$$$
201982
  -INDIGO-08031722522D

 15 15  0  0  0  0  0  0  0  0999 V2000
    2.4001    1.3856    0.0000 Cl  0  0  0  0  0  0  0  0  0  0  0  0
    1.6000   -0.0000    0.0000 C   0  0  0  0  0  0  0  0  0  0  0  0
    3.2000   -0.0000    0.0000 H   0  0  0  0  0  0  0  0  0  0  0  0
    2.4001   -1.3856    0.0000 H   0  0  0  0  0  0  0  0  0  0  0  0
    0.0000   -0.0000    0.0000 C   0  0  0  0  0  0  0  0  0  0  0  0
   -0.7999    1.3856    0.0000 C   0  0  0  0  0  0  0  0  0  0  0  0
    0.0000    2.7713    0.0000 H   0  0  0  0  0  0  0  0  0  0  0  0
   -2.4001    1.3856    0.0000 C   0  0  0  0  0  0  0  0  0  0  0  0
   -3.2000    2.7713    0.0000 H   0  0  0  0  0  0  0  0  0  0  0  0
   -3.2000   -0.0000    0.0000 C   0  0  0  0  0  0  0  0  0  0  0  0
   -4.8000   -0.0000    0.0000 H   0  0  0  0  0  0  0  0  0  0  0  0
   -2.4001   -1.3856    0.0000 C   0  0  0  0  0  0  0  0  0  0  0  0
   -3.2000   -2.7713    0.0000 H   0  0  0  0  0  0  0  0  0  0  0  0
   -0.8001   -1.3856    0.0000 C   0  0  0  0  0  0  0  0  0  0  0  0
    0.0000   -2.7713    0.0000 Cl  0  0  0  0  0  0  0  0  0  0  0  0
  1  2  1  0  0  0  0
  2  3  1  0  0  0  0
  2  4  1  0  0  0  0
  2  5  1  0  0  0  0
  5  6  1  0  0  0  0
  6  7  1  0  0  0  0
  6  8  2  0  0  0  0
  8  9  1  0  0  0  0
  8 10  1  0  0  0  0
 10 11  1  0  0  0  0
 10 12  2  0  0  0  0
 12 13  1  0  0  0  0
 12 14  1  0  0  0  0
 14  5  2  0  0  0  0
 14 15  1  0  0  0  0
M  END
> <ChemID>
201982

> <source_casrn>
611-19-8

> <CAS>
611-19-8

> <SMILES>
ClCc1ccccc1Cl

> <NAME>


> <preferred_name>
2-Chlorobenzyl chloride

> <iupac>
1-chloro-2-(chloromethyl)benzene

> <MPID>
101532

> <dsstox_substance_id>
DTXSID3027241

> <Canonical_QSARr>
Clc1ccccc1CCl

> <InChI_Code_QSARr>
InChI=1S/C7H6Cl2/c8-5-6-3-1-2-4-7(6)9/h1-4H,5H2

> <InChI Key_QSARr>
BASMANVIUSSIIM-UHFFFAOYSA-N

> <Salt_Solvent>


> <Ready_Biodeg>
0.0

$$$$
201986
  -INDIGO-08031722522D

  8  7  0  0  0  0  0  0  0  0999 V2000
    0.8000    1.3856    0.0000 F   0  0  0  0  0  0  0  0  0  0  0  0
    0.0000    0.0000    0.0000 C   0  0  0  0  0  0  0  0  0  0  0  0
    1.6000   -0.0000    0.0000 F   0  0  0  0  0  0  0  0  0  0  0  0
    0.8000   -1.3856    0.0000 Br  0  0  0  0  0  0  0  0  0  0  0  0
   -1.6000    0.0000    0.0000 C   0  0  0  0  0  0  0  0  0  0  0  0
   -3.2000    0.0000    0.0000 F   0  0  0  0  0  0  0  0  0  0  0  0
   -2.4000   -1.3856    0.0000 F   0  0  0  0  0  0  0  0  0  0  0  0
   -2.4000    1.3856    0.0000 Br  0  0  0  0  0  0  0  0  0  0  0  0
  1  2  1  0  0  0  0
  2  3  1  0  0  0  0
  2  4  1  0  0  0  0
  2  5  1  0  0  0  0
  5  6  1  0  0  0  0
  5  7  1  0  0  0  0
  5  8  1  0  0  0  0
M  END
> <ChemID>
201986

> <source_casrn>
124-73-2

> <CAS>
124-73-2

> <SMILES>
FC(F)(Br)C(F)(F)Br

> <NAME>


> <preferred_name>
1,2-Dibromo-1,1,2,2-tetrafluoroethane

> <iupac>
1,2-dibromo-1,1,2,2-tetrafluoroethane

> <MPID>
101533

> <dsstox_substance_id>
DTXSID0041226

> <Canonical_QSARr>
FC(F)(Br)C(F)(F)Br

> <InChI_Code_QSARr>
InChI=1S/C2Br2F4/c3-1(5,6)2(4,7)8

> <InChI Key_QSARr>
KVBKAPANDHPRDG-UHFFFAOYSA-N

> <Salt_Solvent>


> <Ready_Biodeg>
0.0

$$$$
201990
  -INDIGO-08031722522D

 24 24  0  0  0  0  0  0  0  0999 V2000
   -2.7292    0.4812    0.0000 F   0  0  0  0  0  0  0  0  0  0  0  0
   -1.2256    1.0284    0.0000 C   0  0  0  0  0  0  0  0  0  0  0  0
   -2.4513    2.0570    0.0000 F   0  0  0  0  0  0  0  0  0  0  0  0
   -0.9479    2.6042    0.0000 F   0  0  0  0  0  0  0  0  0  0  0  0
    0.0000   -0.0000    0.0000 C   0  0  0  0  0  0  0  0  0  0  0  0
    0.2778    1.5757    0.0000 F   0  0  0  0  0  0  0  0  0  0  0  0
   -0.8000   -1.3857    0.0000 C   0  0  0  0  0  0  0  0  0  0  0  0
   -2.0257   -0.3571    0.0000 F   0  0  0  0  0  0  0  0  0  0  0  0
   -2.0257   -2.4141    0.0000 F   0  0  0  0  0  0  0  0  0  0  0  0
    0.0000   -2.7712    0.0000 C   0  0  0  0  0  0  0  0  0  0  0  0
   -1.5035   -3.3185    0.0000 F   0  0  0  0  0  0  0  0  0  0  0  0
    0.2778   -4.3470    0.0000 F   0  0  0  0  0  0  0  0  0  0  0  0
    1.6000   -2.7712    0.0000 C   0  0  0  0  0  0  0  0  0  0  0  0
    1.3222   -4.3470    0.0000 F   0  0  0  0  0  0  0  0  0  0  0  0
    3.1035   -3.3185    0.0000 F   0  0  0  0  0  0  0  0  0  0  0  0
    2.4000   -1.3857    0.0000 C   0  0  0  0  0  0  0  0  0  0  0  0
    3.6257   -2.4141    0.0000 F   0  0  0  0  0  0  0  0  0  0  0  0
    3.6257   -0.3571    0.0000 F   0  0  0  0  0  0  0  0  0  0  0  0
    1.6000   -0.0000    0.0000 C   0  0  0  0  0  0  0  0  0  0  0  0
    1.3222    1.5757    0.0000 F   0  0  0  0  0  0  0  0  0  0  0  0
    2.8256    1.0284    0.0000 C   0  0  0  0  0  0  0  0  0  0  0  0
    4.0513    2.0570    0.0000 F   0  0  0  0  0  0  0  0  0  0  0  0
    2.5479    2.6042    0.0000 F   0  0  0  0  0  0  0  0  0  0  0  0
    4.3292    0.4812    0.0000 F   0  0  0  0  0  0  0  0  0  0  0  0
  1  2  1  0  0  0  0
  2  3  1  0  0  0  0
  2  4  1  0  0  0  0
  2  5  1  0  0  0  0
  5  6  1  0  0  0  0
  5  7  1  0  0  0  0
  7  8  1  0  0  0  0
  7  9  1  0  0  0  0
  7 10  1  0  0  0  0
 10 11  1  0  0  0  0
 10 12  1  0  0  0  0
 10 13  1  0  0  0  0
 13 14  1  0  0  0  0
 13 15  1  0  0  0  0
 13 16  1  0  0  0  0
 16 17  1  0  0  0  0
 16 18  1  0  0  0  0
 16 19  1  0  0  0  0
 19  5  1  0  0  0  0
 19 20  1  0  0  0  0
 19 21  1  0  0  0  0
 21 22  1  0  0  0  0
 21 23  1  0  0  0  0
 21 24  1  0  0  0  0
M  END
> <ChemID>
201990

> <source_casrn>
306-98-9

> <CAS>
306-98-9

> <SMILES>
FC(F)(F)C1(F)C(F)(F)C(F)(F)C(F)(F)C(F)(F)C1(F)C(F)(F)F

> <NAME>


> <preferred_name>


> <iupac>


> <MPID>
101535

> <dsstox_substance_id>
DTXSID20870500

> <Canonical_QSARr>
FC(F)(F)C1(F)C(F)(C(F)(F)C(F)(F)C(F)(F)C1(F)F)C(F)(F)F

> <InChI_Code_QSARr>
InChI=1S/C8F16/c9-1(7(19,20)21)2(10,8(22,23)24)4(13,14)6(17,18)5(15,16)3(1,11)12

> <InChI Key_QSARr>
GHBZJUJZNRLHBI-UHFFFAOYSA-N

> <Salt_Solvent>


> <Ready_Biodeg>
0.0

$$$$
201994
  -INDIGO-08031722522D

  9  8  0  0  0  0  0  0  0  0999 V2000
    2.7713    0.0000    0.0000 O   0  0  0  0  0  0  0  0  0  0  0  0
    4.1569    0.8000    0.0000 H   0  0  0  0  0  0  0  0  0  0  0  0
    1.3856    0.8000    0.0000 C   0  0  0  0  0  0  0  0  0  0  0  0
    1.3856    2.4000    0.0000 O   0  0  0  0  0  0  0  0  0  0  0  0
    0.0000    0.0000    0.0000 C   0  0  0  0  0  0  0  0  0  0  0  0
    0.6123   -1.4782    0.0000 H   0  0  0  0  0  0  0  0  0  0  0  0
   -0.6123   -1.4782    0.0000 H   0  0  0  0  0  0  0  0  0  0  0  0
   -1.3856    0.8000    0.0000 C   0  0  0  0  0  0  0  0  0  0  0  0
   -2.7713    1.6000    0.0000 N   0  0  0  0  0  0  0  0  0  0  0  0
  1  2  1  0  0  0  0
  1  3  1  0  0  0  0
  3  4  2  0  0  0  0
  3  5  1  0  0  0  0
  5  6  1  0  0  0  0
  5  7  1  0  0  0  0
  5  8  1  0  0  0  0
  8  9  3  0  0  0  0
M  END
> <ChemID>
201994

> <source_casrn>
372-09-8

> <CAS>
372-09-8

> <SMILES>
OC(=O)CC#N

> <NAME>


> <preferred_name>
Cyanoacetic acid

> <iupac>
cyanoacetic acid

> <MPID>
101539

> <dsstox_substance_id>
DTXSID0027149

> <Canonical_QSARr>
N#CCC(O)=O

> <InChI_Code_QSARr>
InChI=1S/C3H3NO2/c4-2-1-3(5)6/h1H2,(H,5,6)

> <InChI Key_QSARr>
MLIREBYILWEBDM-UHFFFAOYSA-N

> <Salt_Solvent>


> <Ready_Biodeg>
1.0

$$$$
202002
  -INDIGO-08031722522D

 12 12  0  0  0  0  0  0  0  0999 V2000
   -2.7713    1.6000    0.0000 N   0  0  0  0  0  0  0  0  0  0  0  0
   -1.3856    0.8000    0.0000 C   0  0  0  0  0  0  0  0  0  0  0  0
    0.0000   -0.0000    0.0000 C   0  0  0  0  0  0  0  0  0  0  0  0
    1.3856    0.8000    0.0000 C   0  0  0  0  0  0  0  0  0  0  0  0
    1.3856    2.4000    0.0000 H   0  0  0  0  0  0  0  0  0  0  0  0
    2.7713    0.0000    0.0000 C   0  0  0  0  0  0  0  0  0  0  0  0
    4.1569    0.8000    0.0000 H   0  0  0  0  0  0  0  0  0  0  0  0
    2.7713   -1.6000    0.0000 C   0  0  0  0  0  0  0  0  0  0  0  0
    4.1569   -2.4000    0.0000 H   0  0  0  0  0  0  0  0  0  0  0  0
    1.3856   -2.4000    0.0000 N   0  0  0  0  0  0  0  0  0  0  0  0
    0.0000   -1.6000    0.0000 C   0  0  0  0  0  0  0  0  0  0  0  0
   -1.3856   -2.4000    0.0000 H   0  0  0  0  0  0  0  0  0  0  0  0
  1  2  3  0  0  0  0
  2  3  1  0  0  0  0
  3  4  1  0  0  0  0
  4  5  1  0  0  0  0
  4  6  2  0  0  0  0
  6  7  1  0  0  0  0
  6  8  1  0  0  0  0
  8  9  1  0  0  0  0
  8 10  2  0  0  0  0
 10 11  1  0  0  0  0
 11  3  2  0  0  0  0
 11 12  1  0  0  0  0
M  END
> <ChemID>
202002

> <source_casrn>
100-54-9

> <CAS>
100-54-9

> <SMILES>
N#Cc1cccnc1

> <NAME>


> <preferred_name>
3-Pyridinecarbonitrile

> <iupac>
pyridine-3-carbonitrile

> <MPID>
101541

> <dsstox_substance_id>
DTXSID1026665

> <Canonical_QSARr>
N#Cc1c[n]ccc1

> <InChI_Code_QSARr>
InChI=1S/C6H4N2/c7-4-6-2-1-3-8-5-6/h1-3,5H

> <InChI Key_QSARr>
GZPHSAQLYPIAIN-UHFFFAOYSA-N

> <Salt_Solvent>


> <Ready_Biodeg>
0.0

$$$$
202010
  -INDIGO-08031722522D

 10  9  0  0  0  0  0  0  0  0999 V2000
    0.8000    1.3856    0.0000 N   0  0  0  0  0  0  0  0  0  0  0  0
    2.4000    1.3856    0.0000 H   0  0  0  0  0  0  0  0  0  0  0  0
   -0.0000    2.7713    0.0000 H   0  0  0  0  0  0  0  0  0  0  0  0
   -0.0000    0.0000    0.0000 C   0  0  0  0  0  0  0  0  0  0  0  0
    0.8000   -1.3856    0.0000 N   0  0  0  0  0  0  0  0  0  0  0  0
    2.4000   -1.3856    0.0000 H   0  0  0  0  0  0  0  0  0  0  0  0
   -1.6000    0.0000    0.0000 S   0  0  0  0  0  0  0  0  0  0  0  0
   -2.4000   -1.3856    0.0000 O   0  0  0  0  0  0  0  0  0  0  0  0
   -4.0000   -1.3856    0.0000 H   0  0  0  0  0  0  0  0  0  0  0  0
   -2.4000    1.3856    0.0000 O   0  0  0  0  0  0  0  0  0  0  0  0
  1  2  1  0  0  0  0
  1  3  1  0  0  0  0
  1  4  1  0  0  0  0
  4  5  2  0  0  0  0
  5  6  1  0  0  0  0
  4  7  1  0  0  0  0
  7  8  1  0  0  0  0
  8  9  1  0  0  0  0
  7 10  2  0  0  0  0
M  END
> <ChemID>
202010

> <source_casrn>
1758-73-2

> <CAS>
1758-73-2

> <SMILES>
NC(=N)[S](O)=O

> <NAME>


> <preferred_name>
Amino(imino)methanesulfinic acid

> <iupac>
amino(imino)methanesulfinic acid

> <MPID>
101544

> <dsstox_substance_id>
DTXSID4029224

> <Canonical_QSARr>
NC(=N)S(O)=O

> <InChI_Code_QSARr>
InChI=1S/CH4N2O2S/c2-1(3)6(4)5/h(H3,2,3)(H,4,5)

> <InChI Key_QSARr>
FYOWZTWVYZOZSI-UHFFFAOYSA-N

> <Salt_Solvent>


> <Ready_Biodeg>
1.0

$$$$
202014
  -INDIGO-08031722522D

 12 11  0  0  0  0  0  0  0  0999 V2000
    1.3857    0.8000    0.0000 N   0  0  0  0  0  0  0  0  0  0  0  0
    2.7713    0.0000    0.0000 H   0  0  0  0  0  0  0  0  0  0  0  0
    1.3857    2.4000    0.0000 H   0  0  0  0  0  0  0  0  0  0  0  0
    0.0000    0.0000    0.0000 C   0  0  0  0  0  0  0  0  0  0  0  0
    0.0000   -1.6000    0.0000 O   0  0  0  0  0  0  0  0  0  0  0  0
   -1.3856    0.8000    0.0000 N   0  0  0  0  0  0  0  0  0  0  0  0
   -2.7713    0.0000    0.0000 N   0  0  0  0  0  0  0  0  0  0  0  0
   -4.1570    0.8000    0.0000 C   0  0  0  0  0  0  0  0  0  0  0  0
   -5.5426    0.0000    0.0000 N   0  0  0  0  0  0  0  0  0  0  0  0
   -6.9282    0.8000    0.0000 H   0  0  0  0  0  0  0  0  0  0  0  0
   -5.5426   -1.6000    0.0000 H   0  0  0  0  0  0  0  0  0  0  0  0
   -4.1570    2.4000    0.0000 O   0  0  0  0  0  0  0  0  0  0  0  0
  1  2  1  0  0  0  0
  1  3  1  0  0  0  0
  1  4  1  0  0  0  0
  4  5  2  0  0  0  0
  4  6  1  0  0  0  0
  6  7  2  0  0  0  0
  7  8  1  0  0  0  0
  8  9  1  0  0  0  0
  9 10  1  0  0  0  0
  9 11  1  0  0  0  0
  8 12  2  0  0  0  0
M  END
> <ChemID>
202014

> <source_casrn>
123-77-3

> <CAS>
123-77-3

> <SMILES>
NC(=O)N=NC(N)=O

> <NAME>


> <preferred_name>
Azodicarbonamide

> <iupac>
diazene-1,2-dicarboxamide

> <MPID>
101548

> <dsstox_substance_id>
DTXSID0024553

> <Canonical_QSARr>
NC(=O)N=NC(N)=O

> <InChI_Code_QSARr>
InChI=1S/C2H4N4O2/c3-1(7)5-6-2(4)8/h(H2,3,7)(H2,4,8)/b6-5+

> <InChI Key_QSARr>
XOZUGNYVDXMRKW-AATRIKPKSA-N

> <Salt_Solvent>


> <Ready_Biodeg>
0.0

$$$$
202022
  -INDIGO-08031722522D

 10  9  0  0  0  0  0  0  0  0999 V2000
    1.3856    0.8000    0.0000 N   0  0  0  0  0  0  0  0  0  0  0  0
    2.7713    0.0000    0.0000 H   0  0  0  0  0  0  0  0  0  0  0  0
    1.3856    2.4000    0.0000 H   0  0  0  0  0  0  0  0  0  0  0  0
    0.0000    0.0000    0.0000 C   0  0  0  0  0  0  0  0  0  0  0  0
   -0.6123   -1.4782    0.0000 H   0  0  0  0  0  0  0  0  0  0  0  0
    0.6123   -1.4782    0.0000 H   0  0  0  0  0  0  0  0  0  0  0  0
   -1.3856    0.8000    0.0000 C   0  0  0  0  0  0  0  0  0  0  0  0
   -2.7713    0.0000    0.0000 O   0  0  0  0  0  0  0  0  0  0  0  0
   -4.1569    0.8000    0.0000 H   0  0  0  0  0  0  0  0  0  0  0  0
   -1.3856    2.4000    0.0000 O   0  0  0  0  0  0  0  0  0  0  0  0
  1  2  1  0  0  0  0
  1  3  1  0  0  0  0
  1  4  1  0  0  0  0
  4  5  1  0  0  0  0
  4  6  1  0  0  0  0
  4  7  1  0  0  0  0
  7  8  1  0  0  0  0
  8  9  1  0  0  0  0
  7 10  2  0  0  0  0
M  END
> <ChemID>
202022

> <source_casrn>
56-40-6

> <CAS>
56-40-6

> <SMILES>
NCC(O)=O

> <NAME>


> <preferred_name>
Glycine

> <iupac>
glycine

> <MPID>
101551

> <dsstox_substance_id>
DTXSID9020667

> <Canonical_QSARr>
NCC(O)=O

> <InChI_Code_QSARr>
InChI=1S/C2H5NO2/c3-1-2(4)5/h1,3H2,(H,4,5)

> <InChI Key_QSARr>
DHMQDGOQFOQNFH-UHFFFAOYSA-N

> <Salt_Solvent>


> <Ready_Biodeg>
1.0

$$$$
202026
  -INDIGO-08031722522D

 45 46  0  0  0  0  0  0  0  0999 V2000
    8.6585    0.9624    0.0000 N   0  0  0  0  0  0  0  0  0  0  0  0
    9.8840    1.9909    0.0000 H   0  0  0  0  0  0  0  0  0  0  0  0
    8.9363   -0.6132    0.0000 H   0  0  0  0  0  0  0  0  0  0  0  0
    7.1548    1.5097    0.0000 C   0  0  0  0  0  0  0  0  0  0  0  0
    6.2951    2.8591    0.0000 H   0  0  0  0  0  0  0  0  0  0  0  0
    7.5011    3.0718    0.0000 H   0  0  0  0  0  0  0  0  0  0  0  0
    5.9292    0.4812    0.0000 C   0  0  0  0  0  0  0  0  0  0  0  0
    6.7889   -0.8682    0.0000 H   0  0  0  0  0  0  0  0  0  0  0  0
    5.5829   -1.0808    0.0000 H   0  0  0  0  0  0  0  0  0  0  0  0
    4.4255    1.0284    0.0000 C   0  0  0  0  0  0  0  0  0  0  0  0
    3.5659    2.3779    0.0000 H   0  0  0  0  0  0  0  0  0  0  0  0
    4.7721    2.5906    0.0000 H   0  0  0  0  0  0  0  0  0  0  0  0
    3.2000    0.0000    0.0000 C   0  0  0  0  0  0  0  0  0  0  0  0
    4.4255   -1.0284    0.0000 H   0  0  0  0  0  0  0  0  0  0  0  0
    2.4000    1.3857    0.0000 O   0  0  0  0  0  0  0  0  0  0  0  0
    0.8001    1.3857    0.0000 C   0  0  0  0  0  0  0  0  0  0  0  0
    1.0779    2.9613    0.0000 H   0  0  0  0  0  0  0  0  0  0  0  0
    0.4258    2.4141    0.0000 H   0  0  0  0  0  0  0  0  0  0  0  0
    0.0002    0.0000    0.0000 C   0  0  0  0  0  0  0  0  0  0  0  0
   -0.8001    1.3857    0.0000 C   0  0  0  0  0  0  0  0  0  0  0  0
   -0.4258    2.4141    0.0000 H   0  0  0  0  0  0  0  0  0  0  0  0
   -1.0779    2.9613    0.0000 H   0  0  0  0  0  0  0  0  0  0  0  0
   -2.4000    1.3857    0.0000 O   0  0  0  0  0  0  0  0  0  0  0  0
   -3.2000    0.0000    0.0000 C   0  0  0  0  0  0  0  0  0  0  0  0
   -4.4255    1.0284    0.0000 H   0  0  0  0  0  0  0  0  0  0  0  0
   -4.4255   -1.0284    0.0000 C   0  0  0  0  0  0  0  0  0  0  0  0
   -3.5659   -2.3779    0.0000 H   0  0  0  0  0  0  0  0  0  0  0  0
   -4.7721   -2.5906    0.0000 H   0  0  0  0  0  0  0  0  0  0  0  0
   -5.9292   -0.4812    0.0000 C   0  0  0  0  0  0  0  0  0  0  0  0
   -6.7889    0.8682    0.0000 H   0  0  0  0  0  0  0  0  0  0  0  0
   -5.5829    1.0808    0.0000 H   0  0  0  0  0  0  0  0  0  0  0  0
   -7.1548   -1.5097    0.0000 C   0  0  0  0  0  0  0  0  0  0  0  0
   -6.2951   -2.8592    0.0000 H   0  0  0  0  0  0  0  0  0  0  0  0
   -7.5011   -3.0718    0.0000 H   0  0  0  0  0  0  0  0  0  0  0  0
   -8.6585   -0.9624    0.0000 N   0  0  0  0  0  0  0  0  0  0  0  0
   -9.8840   -1.9909    0.0000 H   0  0  0  0  0  0  0  0  0  0  0  0
   -8.9363    0.6132    0.0000 H   0  0  0  0  0  0  0  0  0  0  0  0
   -2.4000   -1.3857    0.0000 O   0  0  0  0  0  0  0  0  0  0  0  0
   -0.8001   -1.3857    0.0000 C   0  0  0  0  0  0  0  0  0  0  0  0
   -1.0779   -2.9613    0.0000 H   0  0  0  0  0  0  0  0  0  0  0  0
   -0.4258   -2.4141    0.0000 H   0  0  0  0  0  0  0  0  0  0  0  0
    0.8001   -1.3857    0.0000 C   0  0  0  0  0  0  0  0  0  0  0  0
    0.4258   -2.4141    0.0000 H   0  0  0  0  0  0  0  0  0  0  0  0
    1.3473   -2.8892    0.0000 H   0  0  0  0  0  0  0  0  0  0  0  0
    2.4000   -1.3857    0.0000 O   0  0  0  0  0  0  0  0  0  0  0  0
  1  2  1  0  0  0  0
  1  3  1  0  0  0  0
  1  4  1  0  0  0  0
  4  5  1  0  0  0  0
  4  6  1  0  0  0  0
  4  7  1  0  0  0  0
  7  8  1  0  0  0  0
  7  9  1  0  0  0  0
  7 10  1  0  0  0  0
 10 11  1  0  0  0  0
 10 12  1  0  0  0  0
 10 13  1  0  0  0  0
 13 14  1  0  0  0  0
 13 15  1  0  0  0  0
 15 16  1  0  0  0  0
 16 17  1  0  0  0  0
 16 18  1  0  0  0  0
 16 19  1  0  0  0  0
 19 20  1  0  0  0  0
 20 21  1  0  0  0  0
 20 22  1  0  0  0  0
 20 23  1  0  0  0  0
 23 24  1  0  0  0  0
 24 25  1  0  0  0  0
 24 26  1  0  0  0  0
 26 27  1  0  0  0  0
 26 28  1  0  0  0  0
 26 29  1  0  0  0  0
 29 30  1  0  0  0  0
 29 31  1  0  0  0  0
 29 32  1  0  0  0  0
 32 33  1  0  0  0  0
 32 34  1  0  0  0  0
 32 35  1  0  0  0  0
 35 36  1  0  0  0  0
 35 37  1  0  0  0  0
 24 38  1  0  0  0  0
 38 39  1  0  0  0  0
 39 19  1  0  0  0  0
 39 40  1  0  0  0  0
 39 41  1  0  0  0  0
 19 42  1  0  0  0  0
 42 43  1  0  0  0  0
 42 44  1  0  0  0  0
 42 45  1  0  0  0  0
 45 13  1  0  0  0  0
M  END
> <ChemID>
202026

> <source_casrn>
21587-74-6

> <CAS>
21587-74-6

> <SMILES>
NCCC[CH]1OC[C]2(CO1)CO[CH](CCCN)OC2

> <NAME>


> <preferred_name>
2,4,8,10-Tetraoxaspiro[5.5]undecane-3,9-dipropanamine

> <iupac>
3-[9-(3-aminopropyl)-2,4,8,10-tetraoxaspiro[5.5]undecan-3-yl]propan-1-amine

> <MPID>
101555

> <dsstox_substance_id>
DTXSID8066715

> <Canonical_QSARr>
NCCCC1OCC2(CO1)COC(CCCN)OC2

> <InChI_Code_QSARr>
InChI=1S/C13H26N2O4/c14-5-1-3-11-16-7-13(8-17-11)9-18-12(19-10-13)4-2-6-15/h11-12H,1-10,14-15H2

> <InChI Key_QSARr>
ANOPCGQVRXJHHD-UHFFFAOYSA-N

> <Salt_Solvent>


> <Ready_Biodeg>
0.0

$$$$
202030
  -INDIGO-08031722522D

 28 27  0  0  0  0  0  0  0  0999 V2000
    5.5425    0.0000    0.0000 N   0  0  0  0  0  0  0  0  0  0  0  0
    6.9282   -0.8000    0.0000 H   0  0  0  0  0  0  0  0  0  0  0  0
    5.5425    1.6000    0.0000 H   0  0  0  0  0  0  0  0  0  0  0  0
    4.1570   -0.8000    0.0000 C   0  0  0  0  0  0  0  0  0  0  0  0
    3.5446   -2.2782    0.0000 H   0  0  0  0  0  0  0  0  0  0  0  0
    4.7692   -2.2782    0.0000 H   0  0  0  0  0  0  0  0  0  0  0  0
    2.7713    0.0000    0.0000 C   0  0  0  0  0  0  0  0  0  0  0  0
    3.3835    1.4782    0.0000 H   0  0  0  0  0  0  0  0  0  0  0  0
    2.1589    1.4782    0.0000 H   0  0  0  0  0  0  0  0  0  0  0  0
    1.3856   -0.8000    0.0000 N   0  0  0  0  0  0  0  0  0  0  0  0
    1.3856   -2.4000    0.0000 H   0  0  0  0  0  0  0  0  0  0  0  0
   -0.0001    0.0000    0.0000 C   0  0  0  0  0  0  0  0  0  0  0  0
    0.6123    1.4782    0.0000 H   0  0  0  0  0  0  0  0  0  0  0  0
   -0.6122    1.4782    0.0000 H   0  0  0  0  0  0  0  0  0  0  0  0
   -1.3856   -0.8000    0.0000 C   0  0  0  0  0  0  0  0  0  0  0  0
   -1.9979   -2.2782    0.0000 H   0  0  0  0  0  0  0  0  0  0  0  0
   -0.7734   -2.2782    0.0000 H   0  0  0  0  0  0  0  0  0  0  0  0
   -2.7713    0.0000    0.0000 N   0  0  0  0  0  0  0  0  0  0  0  0
   -2.7713    1.6000    0.0000 H   0  0  0  0  0  0  0  0  0  0  0  0
   -4.1570   -0.8000    0.0000 C   0  0  0  0  0  0  0  0  0  0  0  0
   -4.7691   -2.2782    0.0000 H   0  0  0  0  0  0  0  0  0  0  0  0
   -3.5446   -2.2782    0.0000 H   0  0  0  0  0  0  0  0  0  0  0  0
   -5.5427    0.0000    0.0000 C   0  0  0  0  0  0  0  0  0  0  0  0
   -4.9303    1.4782    0.0000 H   0  0  0  0  0  0  0  0  0  0  0  0
   -6.1548    1.4782    0.0000 H   0  0  0  0  0  0  0  0  0  0  0  0
   -6.9281   -0.8000    0.0000 N   0  0  0  0  0  0  0  0  0  0  0  0
   -8.3138    0.0000    0.0000 H   0  0  0  0  0  0  0  0  0  0  0  0
   -6.9281   -2.4000    0.0000 H   0  0  0  0  0  0  0  0  0  0  0  0
  1  2  1  0  0  0  0
  1  3  1  0  0  0  0
  1  4  1  0  0  0  0
  4  5  1  0  0  0  0
  4  6  1  0  0  0  0
  4  7  1  0  0  0  0
  7  8  1  0  0  0  0
  7  9  1  0  0  0  0
  7 10  1  0  0  0  0
 10 11  1  0  0  0  0
 10 12  1  0  0  0  0
 12 13  1  0  0  0  0
 12 14  1  0  0  0  0
 12 15  1  0  0  0  0
 15 16  1  0  0  0  0
 15 17  1  0  0  0  0
 15 18  1  0  0  0  0
 18 19  1  0  0  0  0
 18 20  1  0  0  0  0
 20 21  1  0  0  0  0
 20 22  1  0  0  0  0
 20 23  1  0  0  0  0
 23 24  1  0  0  0  0
 23 25  1  0  0  0  0
 23 26  1  0  0  0  0
 26 27  1  0  0  0  0
 26 28  1  0  0  0  0
M  END
> <ChemID>
202030

> <source_casrn>
112-24-3

> <CAS>
112-24-3

> <SMILES>
NCCNCCNCCN

> <NAME>


> <preferred_name>
Triethylenetetramine

> <iupac>
N,N'-bis(2-aminoethyl)ethane-1,2-diamine

> <MPID>
101557

> <dsstox_substance_id>
DTXSID9023702

> <Canonical_QSARr>
NCCNCCNCCN

> <InChI_Code_QSARr>
InChI=1S/C6H18N4/c7-1-3-9-5-6-10-4-2-8/h9-10H,1-8H2

> <InChI Key_QSARr>
VILCJCGEZXAXTO-UHFFFAOYSA-N

> <Salt_Solvent>


> <Ready_Biodeg>
0.0

$$$$
202074
  -INDIGO-08031722522D

 17 17  0  0  0  0  0  0  0  0999 V2000
    1.3857    0.8000    0.0000 N   0  0  0  0  0  0  0  0  0  0  0  0
    1.3857    2.4000    0.0000 H   0  0  0  0  0  0  0  0  0  0  0  0
    2.7713   -0.0000    0.0000 H   0  0  0  0  0  0  0  0  0  0  0  0
    0.0000   -0.0000    0.0000 C   0  0  0  0  0  0  0  0  0  0  0  0
   -1.3857    0.8000    0.0000 C   0  0  0  0  0  0  0  0  0  0  0  0
   -1.3857    2.4000    0.0000 H   0  0  0  0  0  0  0  0  0  0  0  0
   -2.7713   -0.0000    0.0000 C   0  0  0  0  0  0  0  0  0  0  0  0
   -4.1570    0.8000    0.0000 H   0  0  0  0  0  0  0  0  0  0  0  0
   -2.7713   -1.6000    0.0000 C   0  0  0  0  0  0  0  0  0  0  0  0
   -4.1570   -2.4000    0.0000 N   0  0  0  0  0  0  0  0  0  0  0  0
   -5.5426   -1.6000    0.0000 O   0  0  0  0  0  0  0  0  0  0  0  0
   -4.1569   -4.0000    0.0000 O   0  0  0  0  0  0  0  0  0  0  0  0
   -1.3857   -2.4000    0.0000 C   0  0  0  0  0  0  0  0  0  0  0  0
   -1.3857   -4.0000    0.0000 H   0  0  0  0  0  0  0  0  0  0  0  0
    0.0000   -1.6000    0.0000 C   0  0  0  0  0  0  0  0  0  0  0  0
    1.3857   -2.4000    0.0000 C   0  0  0  0  0  0  0  0  0  0  0  0
    2.7713   -3.2000    0.0000 N   0  0  0  0  0  0  0  0  0  0  0  0
  1  2  1  0  0  0  0
  1  3  1  0  0  0  0
  1  4  1  0  0  0  0
  4  5  1  0  0  0  0
  5  6  1  0  0  0  0
  5  7  2  0  0  0  0
  7  8  1  0  0  0  0
  7  9  1  0  0  0  0
  9 10  1  0  0  0  0
 10 11  1  0  0  0  0
 10 12  2  0  0  0  0
  9 13  2  0  0  0  0
 13 14  1  0  0  0  0
 13 15  1  0  0  0  0
 15  4  2  0  0  0  0
 15 16  1  0  0  0  0
 16 17  3  0  0  0  0
M  CHG  2  10   1  11  -1
M  END
> <ChemID>
202074

> <source_casrn>
17420-30-3

> <CAS>
17420-30-3

> <SMILES>
Nc1ccc(cc1C#N)[N+]([O-])=O

> <NAME>


> <preferred_name>
2-Amino-5-nitrobenzonitrile

> <iupac>
C7H5N3O2

> <MPID>
101570

> <dsstox_substance_id>
DTXSID0038839

> <Canonical_QSARr>
Nc1ccc(cc1C#N)[N+]([O-])=O

> <InChI_Code_QSARr>
InChI=1S/C7H5N3O2/c8-4-5-3-6(10(11)12)1-2-7(5)9/h1-3H,9H2

> <InChI Key_QSARr>
MGCGMYPNXAFGFA-UHFFFAOYSA-N

> <Salt_Solvent>


> <Ready_Biodeg>
0.0

$$$$
202078
  -INDIGO-08031722522D

 28 29  0  0  0  0  0  0  0  0999 V2000
    4.0000    1.3856    0.0000 N   0  0  0  0  0  0  0  0  0  0  0  0
    4.8000    2.7713    0.0000 H   0  0  0  0  0  0  0  0  0  0  0  0
    4.8000    0.0000    0.0000 H   0  0  0  0  0  0  0  0  0  0  0  0
    2.4001    1.3856    0.0000 C   0  0  0  0  0  0  0  0  0  0  0  0
    1.5999    2.7713    0.0000 C   0  0  0  0  0  0  0  0  0  0  0  0
    2.4001    4.1569    0.0000 H   0  0  0  0  0  0  0  0  0  0  0  0
   -0.0000    2.7713    0.0000 C   0  0  0  0  0  0  0  0  0  0  0  0
   -0.8000    4.1569    0.0000 H   0  0  0  0  0  0  0  0  0  0  0  0
   -0.8000    1.3856    0.0000 C   0  0  0  0  0  0  0  0  0  0  0  0
   -0.0000    0.0000    0.0000 C   0  0  0  0  0  0  0  0  0  0  0  0
   -0.8000   -1.3856    0.0000 C   0  0  0  0  0  0  0  0  0  0  0  0
   -0.0000   -2.7713    0.0000 H   0  0  0  0  0  0  0  0  0  0  0  0
   -2.3999   -1.3856    0.0000 C   0  0  0  0  0  0  0  0  0  0  0  0
   -3.2001   -2.7713    0.0000 H   0  0  0  0  0  0  0  0  0  0  0  0
   -3.2001    0.0000    0.0000 C   0  0  0  0  0  0  0  0  0  0  0  0
   -4.8000    0.0000    0.0000 H   0  0  0  0  0  0  0  0  0  0  0  0
   -2.3999    1.3856    0.0000 C   0  0  0  0  0  0  0  0  0  0  0  0
   -3.2001    2.7713    0.0000 S   0  0  0  0  0  0  0  0  0  0  0  0
   -4.0000    4.1569    0.0000 O   0  0  0  0  0  0  0  0  0  0  0  0
   -5.6000    4.1569    0.0000 H   0  0  0  0  0  0  0  0  0  0  0  0
   -4.5856    1.9713    0.0000 O   0  0  0  0  0  0  0  0  0  0  0  0
   -1.8144    3.5712    0.0000 O   0  0  0  0  0  0  0  0  0  0  0  0
    1.5999    0.0000    0.0000 C   0  0  0  0  0  0  0  0  0  0  0  0
    2.4001   -1.3856    0.0000 S   0  0  0  0  0  0  0  0  0  0  0  0
    3.2000   -2.7713    0.0000 O   0  0  0  0  0  0  0  0  0  0  0  0
    4.8000   -2.7713    0.0000 H   0  0  0  0  0  0  0  0  0  0  0  0
    3.7856   -0.5857    0.0000 O   0  0  0  0  0  0  0  0  0  0  0  0
    1.0144   -2.1856    0.0000 O   0  0  0  0  0  0  0  0  0  0  0  0
  1  2  1  0  0  0  0
  1  3  1  0  0  0  0
  1  4  1  0  0  0  0
  4  5  1  0  0  0  0
  5  6  1  0  0  0  0
  5  7  2  0  0  0  0
  7  8  1  0  0  0  0
  7  9  1  0  0  0  0
  9 10  1  0  0  0  0
 10 11  2  0  0  0  0
 11 12  1  0  0  0  0
 11 13  1  0  0  0  0
 13 14  1  0  0  0  0
 13 15  2  0  0  0  0
 15 16  1  0  0  0  0
 15 17  1  0  0  0  0
 17  9  2  0  0  0  0
 17 18  1  0  0  0  0
 18 19  1  0  0  0  0
 19 20  1  0  0  0  0
 18 21  2  0  0  0  0
 18 22  2  0  0  0  0
 10 23  1  0  0  0  0
 23  4  2  0  0  0  0
 23 24  1  0  0  0  0
 24 25  1  0  0  0  0
 25 26  1  0  0  0  0
 24 27  2  0  0  0  0
 24 28  2  0  0  0  0
M  END
> <ChemID>
202078

> <source_casrn>
117-62-4

> <CAS>
117-62-4

> <SMILES>
Nc1ccc2c(cccc2[S](O)(=O)=O)c1[S](O)(=O)=O

> <NAME>


> <preferred_name>
2-Aminonaphthalene-1,5-disulfonic acid

> <iupac>
2-aminonaphthalene-1,5-disulfonic acid

> <MPID>
101573

> <dsstox_substance_id>
DTXSID0045040

> <Canonical_QSARr>
Nc1ccc2c(cccc2S(O)(=O)=O)c1S(O)(=O)=O

> <InChI_Code_QSARr>
InChI=1S/C10H9NO6S2/c11-8-5-4-6-7(10(8)19(15,16)17)2-1-3-9(6)18(12,13)14/h1-5H,11H2,(H,12,13,14)(H,15,16,17)

> <InChI Key_QSARr>
YAIKCRUPEVOINQ-UHFFFAOYSA-N

> <Salt_Solvent>


> <Ready_Biodeg>
0.0

$$$$
202090
  -INDIGO-08031722522D

 28 29  0  0  0  0  0  0  0  0999 V2000
    4.1569   -2.4000    0.0000 Cl  0  0  0  0  0  0  0  0  0  0  0  0
    2.7714   -1.6000    0.0000 C   0  0  0  0  0  0  0  0  0  0  0  0
    2.7714   -0.0000    0.0000 C   0  0  0  0  0  0  0  0  0  0  0  0
    4.1569    0.8000    0.0000 H   0  0  0  0  0  0  0  0  0  0  0  0
    1.3856    0.8000    0.0000 C   0  0  0  0  0  0  0  0  0  0  0  0
    1.3856    2.4000    0.0000 H   0  0  0  0  0  0  0  0  0  0  0  0
    0.0001   -0.0000    0.0000 C   0  0  0  0  0  0  0  0  0  0  0  0
   -1.3856    0.8000    0.0000 N   0  0  0  0  0  0  0  0  0  0  0  0
   -1.3856    2.4000    0.0000 H   0  0  0  0  0  0  0  0  0  0  0  0
   -2.7712   -0.0000    0.0000 C   0  0  0  0  0  0  0  0  0  0  0  0
   -2.7712   -1.6000    0.0000 O   0  0  0  0  0  0  0  0  0  0  0  0
   -4.1569    0.8000    0.0000 N   0  0  0  0  0  0  0  0  0  0  0  0
   -4.1569    2.4000    0.0000 H   0  0  0  0  0  0  0  0  0  0  0  0
   -5.5427   -0.0000    0.0000 C   0  0  0  0  0  0  0  0  0  0  0  0
   -6.9282    0.8000    0.0000 C   0  0  0  0  0  0  0  0  0  0  0  0
   -6.9282    2.4000    0.0000 H   0  0  0  0  0  0  0  0  0  0  0  0
   -8.3139   -0.0000    0.0000 C   0  0  0  0  0  0  0  0  0  0  0  0
   -9.6995    0.8000    0.0000 H   0  0  0  0  0  0  0  0  0  0  0  0
   -8.3139   -1.6000    0.0000 C   0  0  0  0  0  0  0  0  0  0  0  0
   -9.6995   -2.4000    0.0000 Cl  0  0  0  0  0  0  0  0  0  0  0  0
   -6.9282   -2.4000    0.0000 C   0  0  0  0  0  0  0  0  0  0  0  0
   -6.9282   -4.0000    0.0000 Cl  0  0  0  0  0  0  0  0  0  0  0  0
   -5.5427   -1.6000    0.0000 C   0  0  0  0  0  0  0  0  0  0  0  0
   -4.1569   -2.4000    0.0000 H   0  0  0  0  0  0  0  0  0  0  0  0
    0.0001   -1.6000    0.0000 C   0  0  0  0  0  0  0  0  0  0  0  0
   -1.3856   -2.4000    0.0000 H   0  0  0  0  0  0  0  0  0  0  0  0
    1.3856   -2.4000    0.0000 C   0  0  0  0  0  0  0  0  0  0  0  0
    1.3856   -4.0000    0.0000 H   0  0  0  0  0  0  0  0  0  0  0  0
  1  2  1  0  0  0  0
  2  3  1  0  0  0  0
  3  4  1  0  0  0  0
  3  5  2  0  0  0  0
  5  6  1  0  0  0  0
  5  7  1  0  0  0  0
  7  8  1  0  0  0  0
  8  9  1  0  0  0  0
  8 10  1  0  0  0  0
 10 11  2  0  0  0  0
 10 12  1  0  0  0  0
 12 13  1  0  0  0  0
 12 14  1  0  0  0  0
 14 15  1  0  0  0  0
 15 16  1  0  0  0  0
 15 17  2  0  0  0  0
 17 18  1  0  0  0  0
 17 19  1  0  0  0  0
 19 20  1  0  0  0  0
 19 21  2  0  0  0  0
 21 22  1  0  0  0  0
 21 23  1  0  0  0  0
 23 14  2  0  0  0  0
 23 24  1  0  0  0  0
  7 25  2  0  0  0  0
 25 26  1  0  0  0  0
 25 27  1  0  0  0  0
 27  2  2  0  0  0  0
 27 28  1  0  0  0  0
M  END
> <ChemID>
202090

> <source_casrn>
101-20-2

> <CAS>
101-20-2

> <SMILES>
Clc1ccc(NC(=O)Nc2ccc(Cl)c(Cl)c2)cc1

> <NAME>


> <preferred_name>
Triclocarban

> <iupac>
1-(4-chlorophenyl)-3-(3,4-dichlorophenyl)urea

> <MPID>
101574

> <dsstox_substance_id>
DTXSID4026214

> <Canonical_QSARr>
O=C(Nc1cc(Cl)c(Cl)cc1)Nc1ccc(Cl)cc1

> <InChI_Code_QSARr>
InChI=1S/C13H9Cl3N2O/c14-8-1-3-9(4-2-8)17-13(19)18-10-5-6-11(15)12(16)7-10/h1-7H,(H2,17,18,19)

> <InChI Key_QSARr>
ICUTUKXCWQYESQ-UHFFFAOYSA-N

> <Salt_Solvent>


> <Ready_Biodeg>
0.0

$$$$
202098
  -INDIGO-08031722522D

 27 28  0  0  0  0  0  0  0  0999 V2000
    7.2621   -0.8000    0.0000 Cl  0  0  0  0  0  0  0  0  0  0  0  0
    6.4622   -2.1856    0.0000 C   0  0  0  0  0  0  0  0  0  0  0  0
    8.0621   -2.1856    0.0000 H   0  0  0  0  0  0  0  0  0  0  0  0
    7.2621   -3.5713    0.0000 Cl  0  0  0  0  0  0  0  0  0  0  0  0
    4.8621   -2.1856    0.0000 C   0  0  0  0  0  0  0  0  0  0  0  0
    4.6533   -3.7720    0.0000 Cl  0  0  0  0  0  0  0  0  0  0  0  0
    3.5927   -3.1596    0.0000 Cl  0  0  0  0  0  0  0  0  0  0  0  0
    4.0622   -0.8000    0.0000 S   0  0  0  0  0  0  0  0  0  0  0  0
    2.4621   -0.8000    0.0000 N   0  0  0  0  0  0  0  0  0  0  0  0
    1.5216   -2.0944    0.0000 C   0  0  0  0  0  0  0  0  0  0  0  0
    2.0161   -3.6161    0.0000 O   0  0  0  0  0  0  0  0  0  0  0  0
    0.0000   -1.6000    0.0000 C   0  0  0  0  0  0  0  0  0  0  0  0
    0.1673   -3.1913    0.0000 H   0  0  0  0  0  0  0  0  0  0  0  0
   -1.3857   -2.4000    0.0000 C   0  0  0  0  0  0  0  0  0  0  0  0
   -2.4142   -3.6257    0.0000 H   0  0  0  0  0  0  0  0  0  0  0  0
   -0.8385   -3.9035    0.0000 H   0  0  0  0  0  0  0  0  0  0  0  0
   -2.7712   -1.6000    0.0000 C   0  0  0  0  0  0  0  0  0  0  0  0
   -4.1569   -2.4000    0.0000 H   0  0  0  0  0  0  0  0  0  0  0  0
   -2.7712    0.0000    0.0000 C   0  0  0  0  0  0  0  0  0  0  0  0
   -4.1569    0.8000    0.0000 H   0  0  0  0  0  0  0  0  0  0  0  0
   -1.3857    0.8000    0.0000 C   0  0  0  0  0  0  0  0  0  0  0  0
   -0.8385    2.3035    0.0000 H   0  0  0  0  0  0  0  0  0  0  0  0
   -2.4142    2.0257    0.0000 H   0  0  0  0  0  0  0  0  0  0  0  0
    0.0000    0.0000    0.0000 C   0  0  0  0  0  0  0  0  0  0  0  0
    0.1673    1.5913    0.0000 H   0  0  0  0  0  0  0  0  0  0  0  0
    1.5216    0.4944    0.0000 C   0  0  0  0  0  0  0  0  0  0  0  0
    2.0161    2.0161    0.0000 O   0  0  0  0  0  0  0  0  0  0  0  0
  1  2  1  0  0  0  0
  2  3  1  0  0  0  0
  2  4  1  0  0  0  0
  2  5  1  0  0  0  0
  5  6  1  0  0  0  0
  5  7  1  0  0  0  0
  5  8  1  0  0  0  0
  8  9  1  0  0  0  0
  9 10  1  0  0  0  0
 10 11  2  0  0  0  0
 10 12  1  0  0  0  0
 12 13  1  0  0  0  0
 12 14  1  0  0  0  0
 14 15  1  0  0  0  0
 14 16  1  0  0  0  0
 14 17  1  0  0  0  0
 17 18  1  0  0  0  0
 17 19  2  0  0  0  0
 19 20  1  0  0  0  0
 19 21  1  0  0  0  0
 21 22  1  0  0  0  0
 21 23  1  0  0  0  0
 21 24  1  0  0  0  0
 24 12  1  0  0  0  0
 24 25  1  0  0  0  0
 24 26  1  0  0  0  0
 26  9  1  0  0  0  0
 26 27  2  0  0  0  0
M  END
> <ChemID>
202098

> <source_casrn>
2939-80-2

> <CAS>
2425-06-1

> <SMILES>
ClC(Cl)C(Cl)(Cl)SN1C(=O)C2CC=CCC2C1=O

> <NAME>


> <preferred_name>
cis-Captafol

> <iupac>
(3aR,7aS)-2-[(1,1,2,2-tetrachloroethyl)sulfanyl]-3a,4,7,7a-tetrahydro-1H-isoindole-1,3(2H)-dione

> <MPID>
101577

> <dsstox_substance_id>
DTXSID4020242

> <Canonical_QSARr>
O=C1C2CC=CCC2C(=O)N1SC(Cl)(Cl)C(Cl)Cl

> <InChI_Code_QSARr>
InChI=1S/C10H9Cl4NO2S/c11-9(12)10(13,14)18-15-7(16)5-3-1-2-4-6(5)8(15)17/h1-2,5-6,9H,3-4H2

> <InChI Key_QSARr>
JHRWWRDRBPCWTF-UHFFFAOYSA-N

> <Salt_Solvent>


> <Ready_Biodeg>
0.0

$$$$
202102
  -INDIGO-08031722522D

 18 19  0  0  0  0  0  0  0  0999 V2000
    1.3856    2.4000    0.0000 O   0  0  0  0  0  0  0  0  0  0  0  0
    1.3856    0.8000    0.0000 C   0  0  0  0  0  0  0  0  0  0  0  0
    2.7713   -0.0000    0.0000 C   0  0  0  0  0  0  0  0  0  0  0  0
    4.1569    0.8000    0.0000 H   0  0  0  0  0  0  0  0  0  0  0  0
    2.7713   -1.6000    0.0000 C   0  0  0  0  0  0  0  0  0  0  0  0
    4.1569   -2.4000    0.0000 H   0  0  0  0  0  0  0  0  0  0  0  0
    1.3856   -2.4000    0.0000 C   0  0  0  0  0  0  0  0  0  0  0  0
    1.3856   -4.0000    0.0000 O   0  0  0  0  0  0  0  0  0  0  0  0
    0.0001   -1.6000    0.0000 C   0  0  0  0  0  0  0  0  0  0  0  0
   -1.3856   -2.4000    0.0000 C   0  0  0  0  0  0  0  0  0  0  0  0
   -1.3856   -4.0000    0.0000 H   0  0  0  0  0  0  0  0  0  0  0  0
   -2.7713   -1.6000    0.0000 C   0  0  0  0  0  0  0  0  0  0  0  0
   -4.1569   -2.4000    0.0000 H   0  0  0  0  0  0  0  0  0  0  0  0
   -2.7712   -0.0000    0.0000 C   0  0  0  0  0  0  0  0  0  0  0  0
   -4.1569    0.8000    0.0000 H   0  0  0  0  0  0  0  0  0  0  0  0
   -1.3856    0.8000    0.0000 C   0  0  0  0  0  0  0  0  0  0  0  0
   -1.3856    2.4000    0.0000 H   0  0  0  0  0  0  0  0  0  0  0  0
    0.0001   -0.0000    0.0000 C   0  0  0  0  0  0  0  0  0  0  0  0
  1  2  2  0  0  0  0
  2  3  1  0  0  0  0
  3  4  1  0  0  0  0
  3  5  2  0  0  0  0
  5  6  1  0  0  0  0
  5  7  1  0  0  0  0
  7  8  2  0  0  0  0
  7  9  1  0  0  0  0
  9 10  1  0  0  0  0
 10 11  1  0  0  0  0
 10 12  2  0  0  0  0
 12 13  1  0  0  0  0
 12 14  1  0  0  0  0
 14 15  1  0  0  0  0
 14 16  2  0  0  0  0
 16 17  1  0  0  0  0
 16 18  1  0  0  0  0
 18  2  1  0  0  0  0
 18  9  2  0  0  0  0
M  END
> <ChemID>
202102

> <source_casrn>
130-15-4

> <CAS>
130-15-4

> <SMILES>
O=C1C=CC(=O)c2ccccc12

> <NAME>


> <preferred_name>
1,4-Naphthoquinone

> <iupac>
naphthalene-1,4-dione

> <MPID>
101579

> <dsstox_substance_id>
DTXSID5040704

> <Canonical_QSARr>
O=C1C=CC(=O)c2ccccc12

> <InChI_Code_QSARr>
InChI=1S/C10H6O2/c11-9-5-6-10(12)8-4-2-1-3-7(8)9/h1-6H

> <InChI Key_QSARr>
FRASJONUBLZVQX-UHFFFAOYSA-N

> <Salt_Solvent>


> <Ready_Biodeg>
0.0

$$$$
202118
  -INDIGO-08031722522D

 11 11  0  0  0  0  0  0  0  0999 V2000
    0.4460    2.8161    0.0000 O   0  0  0  0  0  0  0  0  0  0  0  0
   -0.4944    1.5217    0.0000 C   0  0  0  0  0  0  0  0  0  0  0  0
   -0.0000   -0.0000    0.0000 C   0  0  0  0  0  0  0  0  0  0  0  0
    1.4617    0.6508    0.0000 H   0  0  0  0  0  0  0  0  0  0  0  0
    0.8000   -1.3856    0.0000 H   0  0  0  0  0  0  0  0  0  0  0  0
   -1.2945   -0.9405    0.0000 N   0  0  0  0  0  0  0  0  0  0  0  0
   -1.2945   -2.5405    0.0000 H   0  0  0  0  0  0  0  0  0  0  0  0
   -2.5888   -0.0000    0.0000 C   0  0  0  0  0  0  0  0  0  0  0  0
   -4.1105   -0.4944    0.0000 O   0  0  0  0  0  0  0  0  0  0  0  0
   -2.0944    1.5217    0.0000 N   0  0  0  0  0  0  0  0  0  0  0  0
   -3.0349    2.8161    0.0000 H   0  0  0  0  0  0  0  0  0  0  0  0
  1  2  2  0  0  0  0
  2  3  1  0  0  0  0
  3  4  1  0  0  0  0
  3  5  1  0  0  0  0
  3  6  1  0  0  0  0
  6  7  1  0  0  0  0
  6  8  1  0  0  0  0
  8  9  2  0  0  0  0
  8 10  1  0  0  0  0
 10  2  1  0  0  0  0
 10 11  1  0  0  0  0
M  END
> <ChemID>
202118

> <source_casrn>
461-72-3

> <CAS>
461-72-3

> <SMILES>
O=C1CNC(=O)N1

> <NAME>


> <preferred_name>
Hydantoin

> <iupac>
imidazolidine-2,4-dione

> <MPID>
101583

> <dsstox_substance_id>
DTXSID1052111

> <Canonical_QSARr>
O=C1NCC(=O)N1

> <InChI_Code_QSARr>
InChI=1S/C3H4N2O2/c6-2-1-4-3(7)5-2/h1H2,(H2,4,5,6,7)

> <InChI Key_QSARr>
WJRBRSLFGCUECM-UHFFFAOYSA-N

> <Salt_Solvent>


> <Ready_Biodeg>
1.0

$$$$
202122
  -INDIGO-08031722522D

 18 20  0  0  0  0  0  0  0  0999 V2000
    2.0162    2.0161    0.0000 O   0  0  0  0  0  0  0  0  0  0  0  0
    1.5217    0.4944    0.0000 C   0  0  0  0  0  0  0  0  0  0  0  0
    2.4621   -0.8000    0.0000 O   0  0  0  0  0  0  0  0  0  0  0  0
    1.5217   -2.0944    0.0000 C   0  0  0  0  0  0  0  0  0  0  0  0
    2.0162   -3.6161    0.0000 O   0  0  0  0  0  0  0  0  0  0  0  0
    0.0001   -1.6000    0.0000 C   0  0  0  0  0  0  0  0  0  0  0  0
   -1.3856   -2.4000    0.0000 C   0  0  0  0  0  0  0  0  0  0  0  0
   -1.3856   -4.0000    0.0000 H   0  0  0  0  0  0  0  0  0  0  0  0
   -2.7713   -1.6000    0.0000 C   0  0  0  0  0  0  0  0  0  0  0  0
   -4.2930   -2.0944    0.0000 C   0  0  0  0  0  0  0  0  0  0  0  0
   -4.7874   -3.6161    0.0000 O   0  0  0  0  0  0  0  0  0  0  0  0
   -5.2334   -0.8000    0.0000 O   0  0  0  0  0  0  0  0  0  0  0  0
   -4.2930    0.4944    0.0000 C   0  0  0  0  0  0  0  0  0  0  0  0
   -4.7874    2.0161    0.0000 O   0  0  0  0  0  0  0  0  0  0  0  0
   -2.7713   -0.0000    0.0000 C   0  0  0  0  0  0  0  0  0  0  0  0
   -1.3857    0.8000    0.0000 C   0  0  0  0  0  0  0  0  0  0  0  0
   -1.3857    2.4000    0.0000 H   0  0  0  0  0  0  0  0  0  0  0  0
    0.0001   -0.0000    0.0000 C   0  0  0  0  0  0  0  0  0  0  0  0
  1  2  2  0  0  0  0
  2  3  1  0  0  0  0
  3  4  1  0  0  0  0
  4  5  2  0  0  0  0
  4  6  1  0  0  0  0
  6  7  1  0  0  0  0
  7  8  1  0  0  0  0
  7  9  2  0  0  0  0
  9 10  1  0  0  0  0
 10 11  2  0  0  0  0
 10 12  1  0  0  0  0
 12 13  1  0  0  0  0
 13 14  2  0  0  0  0
 13 15  1  0  0  0  0
 15  9  1  0  0  0  0
 15 16  2  0  0  0  0
 16 17  1  0  0  0  0
 16 18  1  0  0  0  0
 18  2  1  0  0  0  0
 18  6  2  0  0  0  0
M  END
> <ChemID>
202122

> <source_casrn>
89-32-7

> <CAS>
89-32-7

> <SMILES>
O=C1OC(=O)c2cc3C(=O)OC(=O)c3cc12

> <NAME>


> <preferred_name>
1H,3H-Benzo(1,2-c:4,5-c')difuran-1,3,5,7-tetrone

> <iupac>
1H,3H-benzo[1,2-c:4,5-c']difuran-1,3,5,7-tetrone

> <MPID>
101586

> <dsstox_substance_id>
DTXSID1026536

> <Canonical_QSARr>
O=C1OC(=O)c2cc3c(cc12)C(=O)OC3=O

> <InChI_Code_QSARr>
InChI=1S/C10H2O6/c11-7-3-1-4-6(10(14)16-8(4)12)2-5(3)9(13)15-7/h1-2H

> <InChI Key_QSARr>
ANSXAPJVJOKRDJ-UHFFFAOYSA-N

> <Salt_Solvent>


> <Ready_Biodeg>
1.0

$$$$
202130
  -INDIGO-08031722522D

 20 21  0  0  0  0  0  0  0  0999 V2000
    5.6622   -0.8000    0.0000 F   0  0  0  0  0  0  0  0  0  0  0  0
    4.8622   -2.1856    0.0000 C   0  0  0  0  0  0  0  0  0  0  0  0
    6.4621   -2.1856    0.0000 Cl  0  0  0  0  0  0  0  0  0  0  0  0
    5.6622   -3.5713    0.0000 Cl  0  0  0  0  0  0  0  0  0  0  0  0
    4.0622   -0.8000    0.0000 S   0  0  0  0  0  0  0  0  0  0  0  0
    2.4621   -0.8000    0.0000 N   0  0  0  0  0  0  0  0  0  0  0  0
    1.5217   -2.0944    0.0000 C   0  0  0  0  0  0  0  0  0  0  0  0
    2.0162   -3.6161    0.0000 O   0  0  0  0  0  0  0  0  0  0  0  0
   -0.0000   -1.6000    0.0000 C   0  0  0  0  0  0  0  0  0  0  0  0
   -1.3856   -2.4000    0.0000 C   0  0  0  0  0  0  0  0  0  0  0  0
   -1.3856   -4.0000    0.0000 H   0  0  0  0  0  0  0  0  0  0  0  0
   -2.7713   -1.6000    0.0000 C   0  0  0  0  0  0  0  0  0  0  0  0
   -4.1569   -2.4000    0.0000 H   0  0  0  0  0  0  0  0  0  0  0  0
   -2.7713   -0.0000    0.0000 C   0  0  0  0  0  0  0  0  0  0  0  0
   -4.1569    0.8000    0.0000 H   0  0  0  0  0  0  0  0  0  0  0  0
   -1.3856    0.8000    0.0000 C   0  0  0  0  0  0  0  0  0  0  0  0
   -1.3856    2.4000    0.0000 H   0  0  0  0  0  0  0  0  0  0  0  0
   -0.0000   -0.0000    0.0000 C   0  0  0  0  0  0  0  0  0  0  0  0
    1.5217    0.4944    0.0000 C   0  0  0  0  0  0  0  0  0  0  0  0
    2.0162    2.0161    0.0000 O   0  0  0  0  0  0  0  0  0  0  0  0
  1  2  1  0  0  0  0
  2  3  1  0  0  0  0
  2  4  1  0  0  0  0
  2  5  1  0  0  0  0
  5  6  1  0  0  0  0
  6  7  1  0  0  0  0
  7  8  2  0  0  0  0
  7  9  1  0  0  0  0
  9 10  1  0  0  0  0
 10 11  1  0  0  0  0
 10 12  2  0  0  0  0
 12 13  1  0  0  0  0
 12 14  1  0  0  0  0
 14 15  1  0  0  0  0
 14 16  2  0  0  0  0
 16 17  1  0  0  0  0
 16 18  1  0  0  0  0
 18  9  2  0  0  0  0
 18 19  1  0  0  0  0
 19  6  1  0  0  0  0
 19 20  2  0  0  0  0
M  END
> <ChemID>
202130

> <source_casrn>
719-96-0

> <CAS>
719-96-0

> <SMILES>
FC(Cl)(Cl)SN1C(=O)c2ccccc2C1=O

> <NAME>


> <preferred_name>
Fluorofolpet

> <iupac>
2-{[dichloro(fluoro)methyl]sulfanyl}-1H-isoindole-1,3(2H)-dione

> <MPID>
101588

> <dsstox_substance_id>
DTXSID5041982

> <Canonical_QSARr>
O=C1c2ccccc2C(=O)N1SC(F)(Cl)Cl

> <InChI_Code_QSARr>
InChI=1S/C9H4Cl2FNO2S/c10-9(11,12)16-13-7(14)5-3-1-2-4-6(5)8(13)15/h1-4H

> <InChI Key_QSARr>
NCDBYAPSWOPDRN-UHFFFAOYSA-N

> <Salt_Solvent>


> <Ready_Biodeg>
0.0

$$$$
202146
  -INDIGO-08031722522D

 13 13  0  0  0  0  0  0  0  0999 V2000
    2.5747    3.1940    0.0000 O   0  0  0  0  0  0  0  0  0  0  0  0
    1.9239    1.7323    0.0000 S   0  0  0  0  0  0  0  0  0  0  0  0
    3.4456    1.2379    0.0000 O   0  0  0  0  0  0  0  0  0  0  0  0
    1.5912    0.1673    0.0000 C   0  0  0  0  0  0  0  0  0  0  0  0
    3.1825    0.0000    0.0000 H   0  0  0  0  0  0  0  0  0  0  0  0
    1.5912   -1.4327    0.0000 H   0  0  0  0  0  0  0  0  0  0  0  0
    0.0000    0.0000    0.0000 C   0  0  0  0  0  0  0  0  0  0  0  0
    0.3326   -1.5650    0.0000 H   0  0  0  0  0  0  0  0  0  0  0  0
   -1.5217   -0.4944    0.0000 H   0  0  0  0  0  0  0  0  0  0  0  0
   -0.6508    1.4617    0.0000 C   0  0  0  0  0  0  0  0  0  0  0  0
   -2.0364    0.6617    0.0000 H   0  0  0  0  0  0  0  0  0  0  0  0
   -1.5912    2.7561    0.0000 H   0  0  0  0  0  0  0  0  0  0  0  0
    0.5382    2.5323    0.0000 O   0  0  0  0  0  0  0  0  0  0  0  0
  1  2  2  0  0  0  0
  2  3  2  0  0  0  0
  2  4  1  0  0  0  0
  4  5  1  0  0  0  0
  4  6  1  0  0  0  0
  4  7  1  0  0  0  0
  7  8  1  0  0  0  0
  7  9  1  0  0  0  0
  7 10  1  0  0  0  0
 10 11  1  0  0  0  0
 10 12  1  0  0  0  0
 10 13  1  0  0  0  0
 13  2  1  0  0  0  0
M  END
> <ChemID>
202146

> <source_casrn>
1120-71-4

> <CAS>
1120-71-4

> <SMILES>
O=[S]1(=O)CCCO1

> <NAME>


> <preferred_name>
1,3-Propane sultone

> <iupac>
1,2-oxathiolane 2,2-dioxide

> <MPID>
101591

> <dsstox_substance_id>
DTXSID8021195

> <Canonical_QSARr>
O=S1(=O)CCCO1

> <InChI_Code_QSARr>
InChI=1S/C3H6O3S/c4-7(5)3-1-2-6-7/h1-3H2

> <InChI Key_QSARr>
FSSPGSAQUIYDCN-UHFFFAOYSA-N

> <Salt_Solvent>


> <Ready_Biodeg>
1.0

$$$$
202150
  -INDIGO-08031722522D

 44 43  0  0  0  0  0  0  0  0999 V2000
   11.0851    0.0000    0.0000 O   0  0  0  0  0  0  0  0  0  0  0  0
   12.4708    0.8000    0.0000 H   0  0  0  0  0  0  0  0  0  0  0  0
    9.6994    0.8000    0.0000 C   0  0  0  0  0  0  0  0  0  0  0  0
    9.6994    2.4000    0.0000 O   0  0  0  0  0  0  0  0  0  0  0  0
    8.3138    0.0000    0.0000 C   0  0  0  0  0  0  0  0  0  0  0  0
    8.9261   -1.4782    0.0000 F   0  0  0  0  0  0  0  0  0  0  0  0
    7.7015   -1.4782    0.0000 F   0  0  0  0  0  0  0  0  0  0  0  0
    6.9281    0.8000    0.0000 C   0  0  0  0  0  0  0  0  0  0  0  0
    6.3158    2.2782    0.0000 F   0  0  0  0  0  0  0  0  0  0  0  0
    7.5404    2.2782    0.0000 F   0  0  0  0  0  0  0  0  0  0  0  0
    5.5425    0.0000    0.0000 C   0  0  0  0  0  0  0  0  0  0  0  0
    6.1548   -1.4782    0.0000 F   0  0  0  0  0  0  0  0  0  0  0  0
    4.9301   -1.4782    0.0000 F   0  0  0  0  0  0  0  0  0  0  0  0
    4.1568    0.8000    0.0000 C   0  0  0  0  0  0  0  0  0  0  0  0
    3.5445    2.2782    0.0000 F   0  0  0  0  0  0  0  0  0  0  0  0
    4.7691    2.2782    0.0000 F   0  0  0  0  0  0  0  0  0  0  0  0
    2.7711    0.0000    0.0000 C   0  0  0  0  0  0  0  0  0  0  0  0
    3.3834   -1.4782    0.0000 F   0  0  0  0  0  0  0  0  0  0  0  0
    2.1592   -1.4782    0.0000 F   0  0  0  0  0  0  0  0  0  0  0  0
    1.3858    0.8000    0.0000 C   0  0  0  0  0  0  0  0  0  0  0  0
    0.7735    2.2782    0.0000 F   0  0  0  0  0  0  0  0  0  0  0  0
    1.9978    2.2782    0.0000 F   0  0  0  0  0  0  0  0  0  0  0  0
    0.0001    0.0000    0.0000 C   0  0  0  0  0  0  0  0  0  0  0  0
    0.6121   -1.4782    0.0000 F   0  0  0  0  0  0  0  0  0  0  0  0
   -0.6122   -1.4782    0.0000 F   0  0  0  0  0  0  0  0  0  0  0  0
   -1.3855    0.8000    0.0000 C   0  0  0  0  0  0  0  0  0  0  0  0
   -1.9978    2.2782    0.0000 F   0  0  0  0  0  0  0  0  0  0  0  0
   -0.7732    2.2782    0.0000 F   0  0  0  0  0  0  0  0  0  0  0  0
   -2.7712    0.0000    0.0000 C   0  0  0  0  0  0  0  0  0  0  0  0
   -2.1589   -1.4782    0.0000 F   0  0  0  0  0  0  0  0  0  0  0  0
   -3.3835   -1.4782    0.0000 F   0  0  0  0  0  0  0  0  0  0  0  0
   -4.1568    0.8000    0.0000 C   0  0  0  0  0  0  0  0  0  0  0  0
   -4.7692    2.2782    0.0000 F   0  0  0  0  0  0  0  0  0  0  0  0
   -3.5445    2.2782    0.0000 F   0  0  0  0  0  0  0  0  0  0  0  0
   -5.5425    0.0000    0.0000 C   0  0  0  0  0  0  0  0  0  0  0  0
   -4.9302   -1.4782    0.0000 F   0  0  0  0  0  0  0  0  0  0  0  0
   -6.1548   -1.4782    0.0000 F   0  0  0  0  0  0  0  0  0  0  0  0
   -6.9282    0.8000    0.0000 C   0  0  0  0  0  0  0  0  0  0  0  0
   -7.5405    2.2782    0.0000 F   0  0  0  0  0  0  0  0  0  0  0  0
   -6.3158    2.2782    0.0000 F   0  0  0  0  0  0  0  0  0  0  0  0
   -8.3138    0.0000    0.0000 C   0  0  0  0  0  0  0  0  0  0  0  0
   -9.6995   -0.8000    0.0000 F   0  0  0  0  0  0  0  0  0  0  0  0
   -9.6995    0.8000    0.0000 F   0  0  0  0  0  0  0  0  0  0  0  0
   -8.3138   -1.6000    0.0000 F   0  0  0  0  0  0  0  0  0  0  0  0
  1  2  1  0  0  0  0
  1  3  1  0  0  0  0
  3  4  2  0  0  0  0
  3  5  1  0  0  0  0
  5  6  1  0  0  0  0
  5  7  1  0  0  0  0
  5  8  1  0  0  0  0
  8  9  1  0  0  0  0
  8 10  1  0  0  0  0
  8 11  1  0  0  0  0
 11 12  1  0  0  0  0
 11 13  1  0  0  0  0
 11 14  1  0  0  0  0
 14 15  1  0  0  0  0
 14 16  1  0  0  0  0
 14 17  1  0  0  0  0
 17 18  1  0  0  0  0
 17 19  1  0  0  0  0
 17 20  1  0  0  0  0
 20 21  1  0  0  0  0
 20 22  1  0  0  0  0
 20 23  1  0  0  0  0
 23 24  1  0  0  0  0
 23 25  1  0  0  0  0
 23 26  1  0  0  0  0
 26 27  1  0  0  0  0
 26 28  1  0  0  0  0
 26 29  1  0  0  0  0
 29 30  1  0  0  0  0
 29 31  1  0  0  0  0
 29 32  1  0  0  0  0
 32 33  1  0  0  0  0
 32 34  1  0  0  0  0
 32 35  1  0  0  0  0
 35 36  1  0  0  0  0
 35 37  1  0  0  0  0
 35 38  1  0  0  0  0
 38 39  1  0  0  0  0
 38 40  1  0  0  0  0
 38 41  1  0  0  0  0
 41 42  1  0  0  0  0
 41 43  1  0  0  0  0
 41 44  1  0  0  0  0
M  END
> <ChemID>
202150

> <source_casrn>
376-06-7

> <CAS>
376-06-7

> <SMILES>
OC(=O)C(F)(F)C(F)(F)C(F)(F)C(F)(F)C(F)(F)C(F)(F)C(F)(F)C(F)(F)C(F)(F)C(F)(F)C(F)(F)C(F)(F)C(F)(F)F

> <NAME>


> <preferred_name>
Perfluoromyristic acid

> <iupac>
2,2,3,3,4,4,5,5,6,6,7,7,8,8,9,9,10,10,11,11,12,12,13,13,14,14,14-heptacosafluorotetradecanoic acid

> <MPID>
101592

> <dsstox_substance_id>
DTXSID3059921

> <Canonical_QSARr>
OC(=O)C(F)(F)C(F)(F)C(F)(F)C(F)(F)C(F)(F)C(F)(F)C(F)(F)C(F)(F)C(F)(F)C(F)(F)C(F)(F)C(F)(F)C(F)(F)F

> <InChI_Code_QSARr>
InChI=1S/C14HF27O2/c15-2(16,1(42)43)3(17,18)4(19,20)5(21,22)6(23,24)7(25,26)8(27,28)9(29,30)10(31,32)11(33,34)12(35,36)13(37,38)14(39,40)41/h(H,42,43)

> <InChI Key_QSARr>
RUDINRUXCKIXAJ-UHFFFAOYSA-N

> <Salt_Solvent>


> <Ready_Biodeg>
0.0

$$$$
202158
  -INDIGO-08031722522D

 45 46  0  0  0  0  0  0  0  0999 V2000
   -2.0257   -4.0141    0.0000 O   0  0  0  0  0  0  0  0  0  0  0  0
   -1.7479   -5.5898    0.0000 H   0  0  0  0  0  0  0  0  0  0  0  0
   -0.7999   -2.9856    0.0000 C   0  0  0  0  0  0  0  0  0  0  0  0
    0.5856   -3.7856    0.0000 O   0  0  0  0  0  0  0  0  0  0  0  0
   -0.7999   -1.3857    0.0000 C   0  0  0  0  0  0  0  0  0  0  0  0
    0.7035   -1.9329    0.0000 H   0  0  0  0  0  0  0  0  0  0  0  0
   -2.4000   -1.3857    0.0000 C   0  0  0  0  0  0  0  0  0  0  0  0
   -2.1221   -2.9614    0.0000 H   0  0  0  0  0  0  0  0  0  0  0  0
   -3.9036   -1.9329    0.0000 H   0  0  0  0  0  0  0  0  0  0  0  0
   -3.2001    0.0000    0.0000 C   0  0  0  0  0  0  0  0  0  0  0  0
   -4.4257   -1.0284    0.0000 H   0  0  0  0  0  0  0  0  0  0  0  0
   -4.4257    1.0285    0.0000 H   0  0  0  0  0  0  0  0  0  0  0  0
   -2.4000    1.3856    0.0000 C   0  0  0  0  0  0  0  0  0  0  0  0
   -3.9036    1.9329    0.0000 H   0  0  0  0  0  0  0  0  0  0  0  0
   -2.1221    2.9613    0.0000 H   0  0  0  0  0  0  0  0  0  0  0  0
   -0.7999    1.3856    0.0000 C   0  0  0  0  0  0  0  0  0  0  0  0
   -1.0777    2.9613    0.0000 H   0  0  0  0  0  0  0  0  0  0  0  0
    0.7035    1.9329    0.0000 H   0  0  0  0  0  0  0  0  0  0  0  0
    0.0000    0.0000    0.0000 C   0  0  0  0  0  0  0  0  0  0  0  0
    1.2256   -1.0284    0.0000 H   0  0  0  0  0  0  0  0  0  0  0  0
    1.3857    0.8000    0.0000 C   0  0  0  0  0  0  0  0  0  0  0  0
    1.6635    2.3757    0.0000 O   0  0  0  0  0  0  0  0  0  0  0  0
    2.7714    0.0000    0.0000 O   0  0  0  0  0  0  0  0  0  0  0  0
    4.1569    0.8000    0.0000 C   0  0  0  0  0  0  0  0  0  0  0  0
    3.8790    2.3757    0.0000 O   0  0  0  0  0  0  0  0  0  0  0  0
    5.5425    0.0000    0.0000 C   0  0  0  0  0  0  0  0  0  0  0  0
    4.3170   -1.0284    0.0000 H   0  0  0  0  0  0  0  0  0  0  0  0
    6.3425    1.3856    0.0000 C   0  0  0  0  0  0  0  0  0  0  0  0
    4.8391    1.9329    0.0000 H   0  0  0  0  0  0  0  0  0  0  0  0
    6.6203    2.9613    0.0000 H   0  0  0  0  0  0  0  0  0  0  0  0
    7.9425    1.3856    0.0000 C   0  0  0  0  0  0  0  0  0  0  0  0
    7.6647    2.9613    0.0000 H   0  0  0  0  0  0  0  0  0  0  0  0
    9.4462    1.9329    0.0000 H   0  0  0  0  0  0  0  0  0  0  0  0
    8.7427    0.0000    0.0000 C   0  0  0  0  0  0  0  0  0  0  0  0
    9.9682    1.0285    0.0000 H   0  0  0  0  0  0  0  0  0  0  0  0
    9.9682   -1.0284    0.0000 H   0  0  0  0  0  0  0  0  0  0  0  0
    7.9425   -1.3857    0.0000 C   0  0  0  0  0  0  0  0  0  0  0  0
    9.4462   -1.9329    0.0000 H   0  0  0  0  0  0  0  0  0  0  0  0
    7.6647   -2.9614    0.0000 H   0  0  0  0  0  0  0  0  0  0  0  0
    6.3425   -1.3857    0.0000 C   0  0  0  0  0  0  0  0  0  0  0  0
    4.8391   -1.9329    0.0000 H   0  0  0  0  0  0  0  0  0  0  0  0
    6.3425   -2.9856    0.0000 C   0  0  0  0  0  0  0  0  0  0  0  0
    7.5683   -4.0141    0.0000 O   0  0  0  0  0  0  0  0  0  0  0  0
    7.2904   -5.5898    0.0000 H   0  0  0  0  0  0  0  0  0  0  0  0
    4.9570   -3.7856    0.0000 O   0  0  0  0  0  0  0  0  0  0  0  0
  1  2  1  0  0  0  0
  1  3  1  0  0  0  0
  3  4  2  0  0  0  0
  3  5  1  0  0  0  0
  5  6  1  0  0  0  0
  5  7  1  0  0  0  0
  7  8  1  0  0  0  0
  7  9  1  0  0  0  0
  7 10  1  0  0  0  0
 10 11  1  0  0  0  0
 10 12  1  0  0  0  0
 10 13  1  0  0  0  0
 13 14  1  0  0  0  0
 13 15  1  0  0  0  0
 13 16  1  0  0  0  0
 16 17  1  0  0  0  0
 16 18  1  0  0  0  0
 16 19  1  0  0  0  0
 19  5  1  0  0  0  0
 19 20  1  0  0  0  0
 19 21  1  0  0  0  0
 21 22  2  0  0  0  0
 21 23  1  0  0  0  0
 23 24  1  0  0  0  0
 24 25  2  0  0  0  0
 24 26  1  0  0  0  0
 26 27  1  0  0  0  0
 26 28  1  0  0  0  0
 28 29  1  0  0  0  0
 28 30  1  0  0  0  0
 28 31  1  0  0  0  0
 31 32  1  0  0  0  0
 31 33  1  0  0  0  0
 31 34  1  0  0  0  0
 34 35  1  0  0  0  0
 34 36  1  0  0  0  0
 34 37  1  0  0  0  0
 37 38  1  0  0  0  0
 37 39  1  0  0  0  0
 37 40  1  0  0  0  0
 40 26  1  0  0  0  0
 40 41  1  0  0  0  0
 40 42  1  0  0  0  0
 42 43  1  0  0  0  0
 43 44  1  0  0  0  0
 42 45  2  0  0  0  0
M  END
> <ChemID>
202158

> <source_casrn>


> <CAS>
13149-00-3

> <SMILES>
OC(=O)[C@@H]1CCCC[C@@H]1C(=O)OC(=O)[C@@H]2CCCC[C@@H]2C(O)=O

> <NAME>


> <preferred_name>


> <iupac>


> <MPID>
101595

> <dsstox_substance_id>


> <Canonical_QSARr>
OC(=O)C1CCCCC1C(=O)OC(=O)C1CCCCC1C(O)=O

> <InChI_Code_QSARr>
InChI=1S/C16H22O7/c17-13(18)9-5-1-3-7-11(9)15(21)23-16(22)12-8-4-2-6-10(12)14(19)20/h9-12H,1-8H2,(H,17,18)(H,19,20)

> <InChI Key_QSARr>
BHUJRLVPGNPDNJ-UHFFFAOYSA-N

> <Salt_Solvent>


> <Ready_Biodeg>
0.0

$$$$
202178
  -INDIGO-08031722522D

 17 17  0  0  0  0  0  0  0  0999 V2000
    2.4000   -1.3856    0.0000 O   0  0  0  0  0  0  0  0  0  0  0  0
    4.0000   -1.3856    0.0000 H   0  0  0  0  0  0  0  0  0  0  0  0
    1.6000   -0.0000    0.0000 C   0  0  0  0  0  0  0  0  0  0  0  0
    2.4000    1.3856    0.0000 O   0  0  0  0  0  0  0  0  0  0  0  0
    0.0001   -0.0000    0.0000 C   0  0  0  0  0  0  0  0  0  0  0  0
   -0.7999    1.3856    0.0000 C   0  0  0  0  0  0  0  0  0  0  0  0
    0.0001    2.7713    0.0000 H   0  0  0  0  0  0  0  0  0  0  0  0
   -2.4001    1.3856    0.0000 C   0  0  0  0  0  0  0  0  0  0  0  0
   -3.2001    2.7713    0.0000 H   0  0  0  0  0  0  0  0  0  0  0  0
   -3.2001   -0.0000    0.0000 C   0  0  0  0  0  0  0  0  0  0  0  0
   -4.8000   -0.0000    0.0000 C   0  0  0  0  0  0  0  0  0  0  0  0
   -5.6000   -1.3856    0.0000 O   0  0  0  0  0  0  0  0  0  0  0  0
   -7.2000   -1.3856    0.0000 H   0  0  0  0  0  0  0  0  0  0  0  0
   -5.6000    1.3856    0.0000 O   0  0  0  0  0  0  0  0  0  0  0  0
   -2.4001   -1.3856    0.0000 N   0  0  0  0  0  0  0  0  0  0  0  0
   -0.7999   -1.3856    0.0000 C   0  0  0  0  0  0  0  0  0  0  0  0
    0.0001   -2.7713    0.0000 H   0  0  0  0  0  0  0  0  0  0  0  0
  1  2  1  0  0  0  0
  1  3  1  0  0  0  0
  3  4  2  0  0  0  0
  3  5  1  0  0  0  0
  5  6  1  0  0  0  0
  6  7  1  0  0  0  0
  6  8  2  0  0  0  0
  8  9  1  0  0  0  0
  8 10  1  0  0  0  0
 10 11  1  0  0  0  0
 11 12  1  0  0  0  0
 12 13  1  0  0  0  0
 11 14  2  0  0  0  0
 10 15  2  0  0  0  0
 15 16  1  0  0  0  0
 16  5  2  0  0  0  0
 16 17  1  0  0  0  0
M  END
> <ChemID>
202178

> <source_casrn>
100-26-5

> <CAS>
100-26-5

> <SMILES>
OC(=O)c1ccc(nc1)C(O)=O

> <NAME>


> <preferred_name>
2,5-Pyridinedicarboxylic acid

> <iupac>
Pyridine-2,5-dicarboxylic acid

> <MPID>
101600

> <dsstox_substance_id>
DTXSID3059210

> <Canonical_QSARr>
OC(=O)c1ccc(c[n]1)C(O)=O

> <InChI_Code_QSARr>
InChI=1S/C7H5NO4/c9-6(10)4-1-2-5(7(11)12)8-3-4/h1-3H,(H,9,10)(H,11,12)

> <InChI Key_QSARr>
LVPMIMZXDYBCDF-UHFFFAOYSA-N

> <Salt_Solvent>


> <Ready_Biodeg>
0.0

$$$$
202186
  -INDIGO-08031722522D

 26 25  0  0  0  0  0  0  0  0999 V2000
    3.6986   -2.0592    0.0000 O   0  0  0  0  0  0  0  0  0  0  0  0
    5.2743   -2.3370    0.0000 H   0  0  0  0  0  0  0  0  0  0  0  0
    3.1514   -0.5556    0.0000 C   0  0  0  0  0  0  0  0  0  0  0  0
    4.5706    0.1832    0.0000 H   0  0  0  0  0  0  0  0  0  0  0  0
    3.6324    0.9702    0.0000 H   0  0  0  0  0  0  0  0  0  0  0  0
    1.5757   -0.2778    0.0000 C   0  0  0  0  0  0  0  0  0  0  0  0
    1.8536    1.2979    0.0000 H   0  0  0  0  0  0  0  0  0  0  0  0
    1.2978   -1.8536    0.0000 O   0  0  0  0  0  0  0  0  0  0  0  0
    2.5235   -2.8820    0.0000 H   0  0  0  0  0  0  0  0  0  0  0  0
    0.0000    0.0000    0.0000 C   0  0  0  0  0  0  0  0  0  0  0  0
    0.0000   -1.6000    0.0000 H   0  0  0  0  0  0  0  0  0  0  0  0
    0.0000    1.6000    0.0000 O   0  0  0  0  0  0  0  0  0  0  0  0
    1.3857    2.4000    0.0000 H   0  0  0  0  0  0  0  0  0  0  0  0
   -1.6000    0.0000    0.0000 C   0  0  0  0  0  0  0  0  0  0  0  0
   -1.6000    1.6000    0.0000 H   0  0  0  0  0  0  0  0  0  0  0  0
   -1.6000   -1.6000    0.0000 O   0  0  0  0  0  0  0  0  0  0  0  0
   -2.9857   -2.4000    0.0000 H   0  0  0  0  0  0  0  0  0  0  0  0
   -3.1757    0.2778    0.0000 C   0  0  0  0  0  0  0  0  0  0  0  0
   -3.4536   -1.2979    0.0000 H   0  0  0  0  0  0  0  0  0  0  0  0
   -2.8978    1.8536    0.0000 O   0  0  0  0  0  0  0  0  0  0  0  0
   -4.1235    2.8820    0.0000 H   0  0  0  0  0  0  0  0  0  0  0  0
   -4.7514    0.5556    0.0000 C   0  0  0  0  0  0  0  0  0  0  0  0
   -6.1706   -0.1832    0.0000 H   0  0  0  0  0  0  0  0  0  0  0  0
   -5.2324   -0.9703    0.0000 H   0  0  0  0  0  0  0  0  0  0  0  0
   -5.2986    2.0592    0.0000 O   0  0  0  0  0  0  0  0  0  0  0  0
   -6.8743    2.3370    0.0000 H   0  0  0  0  0  0  0  0  0  0  0  0
  1  2  1  0  0  0  0
  1  3  1  0  0  0  0
  3  4  1  0  0  0  0
  3  5  1  0  0  0  0
  3  6  1  0  0  0  0
  6  7  1  0  0  0  0
  6  8  1  0  0  0  0
  8  9  1  0  0  0  0
  6 10  1  0  0  0  0
 10 11  1  0  0  0  0
 10 12  1  0  0  0  0
 12 13  1  0  0  0  0
 10 14  1  0  0  0  0
 14 15  1  0  0  0  0
 14 16  1  0  0  0  0
 16 17  1  0  0  0  0
 14 18  1  0  0  0  0
 18 19  1  0  0  0  0
 18 20  1  0  0  0  0
 20 21  1  0  0  0  0
 18 22  1  0  0  0  0
 22 23  1  0  0  0  0
 22 24  1  0  0  0  0
 22 25  1  0  0  0  0
 25 26  1  0  0  0  0
M  END
> <ChemID>
202186

> <source_casrn>
50-70-4

> <CAS>
50-70-4

> <SMILES>
OC[C@H](O)[C@@H](O)[C@H](O)[C@H](O)CO

> <NAME>


> <preferred_name>
D-Glucitol

> <iupac>
D-glucitol

> <MPID>
101602

> <dsstox_substance_id>
DTXSID5023588

> <Canonical_QSARr>
OC(CO)C(O)C(O)C(O)CO

> <InChI_Code_QSARr>
InChI=1S/C6H14O6/c7-1-3(9)5(11)6(12)4(10)2-8/h3-12H,1-2H2

> <InChI Key_QSARr>
FBPFZTCFMRRESA-UHFFFAOYSA-N

> <Salt_Solvent>


> <Ready_Biodeg>
1.0

$$$$
202194
  -INDIGO-08031722522D

 36 35  0  0  0  0  0  0  0  0999 V2000
    8.3139    0.0000    0.0000 O   0  0  0  0  0  0  0  0  0  0  0  0
    9.6995    0.8000    0.0000 H   0  0  0  0  0  0  0  0  0  0  0  0
    6.9283    0.8000    0.0000 C   0  0  0  0  0  0  0  0  0  0  0  0
    6.3159    2.2782    0.0000 H   0  0  0  0  0  0  0  0  0  0  0  0
    7.5404    2.2782    0.0000 H   0  0  0  0  0  0  0  0  0  0  0  0
    5.5427    0.0000    0.0000 C   0  0  0  0  0  0  0  0  0  0  0  0
    6.1548   -1.4782    0.0000 F   0  0  0  0  0  0  0  0  0  0  0  0
    4.9303   -1.4782    0.0000 F   0  0  0  0  0  0  0  0  0  0  0  0
    4.1568    0.8000    0.0000 C   0  0  0  0  0  0  0  0  0  0  0  0
    3.5447    2.2782    0.0000 F   0  0  0  0  0  0  0  0  0  0  0  0
    4.7692    2.2782    0.0000 F   0  0  0  0  0  0  0  0  0  0  0  0
    2.7712    0.0000    0.0000 C   0  0  0  0  0  0  0  0  0  0  0  0
    3.3836   -1.4782    0.0000 F   0  0  0  0  0  0  0  0  0  0  0  0
    2.1591   -1.4782    0.0000 F   0  0  0  0  0  0  0  0  0  0  0  0
    1.3856    0.8000    0.0000 C   0  0  0  0  0  0  0  0  0  0  0  0
    0.7732    2.2782    0.0000 F   0  0  0  0  0  0  0  0  0  0  0  0
    1.9980    2.2782    0.0000 F   0  0  0  0  0  0  0  0  0  0  0  0
    0.0000    0.0000    0.0000 C   0  0  0  0  0  0  0  0  0  0  0  0
    0.6124   -1.4782    0.0000 F   0  0  0  0  0  0  0  0  0  0  0  0
   -0.6124   -1.4782    0.0000 F   0  0  0  0  0  0  0  0  0  0  0  0
   -1.3856    0.8000    0.0000 C   0  0  0  0  0  0  0  0  0  0  0  0
   -1.9980    2.2782    0.0000 F   0  0  0  0  0  0  0  0  0  0  0  0
   -0.7735    2.2782    0.0000 F   0  0  0  0  0  0  0  0  0  0  0  0
   -2.7712    0.0000    0.0000 C   0  0  0  0  0  0  0  0  0  0  0  0
   -2.1590   -1.4782    0.0000 F   0  0  0  0  0  0  0  0  0  0  0  0
   -3.3836   -1.4782    0.0000 F   0  0  0  0  0  0  0  0  0  0  0  0
   -4.1570    0.8000    0.0000 C   0  0  0  0  0  0  0  0  0  0  0  0
   -4.7692    2.2782    0.0000 F   0  0  0  0  0  0  0  0  0  0  0  0
   -3.5446    2.2782    0.0000 F   0  0  0  0  0  0  0  0  0  0  0  0
   -5.5426    0.0000    0.0000 C   0  0  0  0  0  0  0  0  0  0  0  0
   -4.9302   -1.4782    0.0000 F   0  0  0  0  0  0  0  0  0  0  0  0
   -6.1548   -1.4782    0.0000 F   0  0  0  0  0  0  0  0  0  0  0  0
   -6.9282    0.8000    0.0000 C   0  0  0  0  0  0  0  0  0  0  0  0
   -8.3138    1.6000    0.0000 H   0  0  0  0  0  0  0  0  0  0  0  0
   -8.3138    0.0000    0.0000 F   0  0  0  0  0  0  0  0  0  0  0  0
   -6.9282    2.4000    0.0000 F   0  0  0  0  0  0  0  0  0  0  0  0
  1  2  1  0  0  0  0
  1  3  1  0  0  0  0
  3  4  1  0  0  0  0
  3  5  1  0  0  0  0
  3  6  1  0  0  0  0
  6  7  1  0  0  0  0
  6  8  1  0  0  0  0
  6  9  1  0  0  0  0
  9 10  1  0  0  0  0
  9 11  1  0  0  0  0
  9 12  1  0  0  0  0
 12 13  1  0  0  0  0
 12 14  1  0  0  0  0
 12 15  1  0  0  0  0
 15 16  1  0  0  0  0
 15 17  1  0  0  0  0
 15 18  1  0  0  0  0
 18 19  1  0  0  0  0
 18 20  1  0  0  0  0
 18 21  1  0  0  0  0
 21 22  1  0  0  0  0
 21 23  1  0  0  0  0
 21 24  1  0  0  0  0
 24 25  1  0  0  0  0
 24 26  1  0  0  0  0
 24 27  1  0  0  0  0
 27 28  1  0  0  0  0
 27 29  1  0  0  0  0
 27 30  1  0  0  0  0
 30 31  1  0  0  0  0
 30 32  1  0  0  0  0
 30 33  1  0  0  0  0
 33 34  1  0  0  0  0
 33 35  1  0  0  0  0
 33 36  1  0  0  0  0
M  END
> <ChemID>
202194

> <source_casrn>
307-70-0

> <CAS>
307-70-0

> <SMILES>
OCC(F)(F)C(F)(F)C(F)(F)C(F)(F)C(F)(F)C(F)(F)C(F)(F)C(F)(F)C(F)(F)C(F)F

> <NAME>


> <preferred_name>
1-Undecanol, 2,2,3,3,4,4,5,5,6,6,7,7,8,8,9,9,10,10,11,11-eicosafluoro-

> <iupac>
2,2,3,3,4,4,5,5,6,6,7,7,8,8,9,9,10,10,11,11-Icosafluoroundecan-1-ol

> <MPID>
101604

> <dsstox_substance_id>
DTXSID0059798

> <Canonical_QSARr>
OCC(F)(F)C(F)(F)C(F)(F)C(F)(F)C(F)(F)C(F)(F)C(F)(F)C(F)(F)C(F)(F)C(F)F

> <InChI_Code_QSARr>
InChI=1S/C11H4F20O/c12-2(13)4(16,17)6(20,21)8(24,25)10(28,29)11(30,31)9(26,27)7(22,23)5(18,19)3(14,15)1-32/h2,32H,1H2

> <InChI Key_QSARr>
GJYLSFCFHFUODO-UHFFFAOYSA-N

> <Salt_Solvent>


> <Ready_Biodeg>
0.0

$$$$
202198
  -INDIGO-08031722522D

 34 36  0  0  0  0  0  0  0  0999 V2000
    4.0141   -2.0257    0.0000 O   0  0  0  0  0  0  0  0  0  0  0  0
    5.5898   -1.7478    0.0000 H   0  0  0  0  0  0  0  0  0  0  0  0
    2.9856   -0.8000    0.0000 C   0  0  0  0  0  0  0  0  0  0  0  0
    3.1945    0.7863    0.0000 H   0  0  0  0  0  0  0  0  0  0  0  0
    4.2549    0.1740    0.0000 H   0  0  0  0  0  0  0  0  0  0  0  0
    1.3856   -0.8000    0.0000 C   0  0  0  0  0  0  0  0  0  0  0  0
    2.1551   -0.4218    0.0000 H   0  0  0  0  0  0  0  0  0  0  0  0
    1.3856   -2.4000    0.0000 C   0  0  0  0  0  0  0  0  0  0  0  0
    2.9613   -2.1222    0.0000 H   0  0  0  0  0  0  0  0  0  0  0  0
    2.1857   -3.7857    0.0000 H   0  0  0  0  0  0  0  0  0  0  0  0
    0.0001   -3.2000    0.0000 C   0  0  0  0  0  0  0  0  0  0  0  0
   -0.6633   -2.2000    0.0000 C   0  0  0  0  0  0  0  0  0  0  0  0
   -0.8757   -3.7858    0.0000 H   0  0  0  0  0  0  0  0  0  0  0  0
   -1.2021   -2.9230    0.0000 H   0  0  0  0  0  0  0  0  0  0  0  0
   -0.6633   -1.0000    0.0000 C   0  0  0  0  0  0  0  0  0  0  0  0
   -2.1778   -1.5160    0.0000 H   0  0  0  0  0  0  0  0  0  0  0  0
   -1.1478    0.5249    0.0000 H   0  0  0  0  0  0  0  0  0  0  0  0
    0.0001    0.0000    0.0000 C   0  0  0  0  0  0  0  0  0  0  0  0
    0.6633   -1.0000    0.0000 C   0  0  0  0  0  0  0  0  0  0  0  0
    0.8757    0.5858    0.0000 H   0  0  0  0  0  0  0  0  0  0  0  0
    1.1758   -0.3125    0.0000 H   0  0  0  0  0  0  0  0  0  0  0  0
    0.6633   -2.2000    0.0000 C   0  0  0  0  0  0  0  0  0  0  0  0
    2.1778   -1.6840    0.0000 H   0  0  0  0  0  0  0  0  0  0  0  0
    1.1478   -3.7249    0.0000 H   0  0  0  0  0  0  0  0  0  0  0  0
   -1.3856   -0.8000    0.0000 C   0  0  0  0  0  0  0  0  0  0  0  0
   -2.9613   -1.0778    0.0000 H   0  0  0  0  0  0  0  0  0  0  0  0
   -2.1857    0.5857    0.0000 H   0  0  0  0  0  0  0  0  0  0  0  0
   -1.3856   -2.4000    0.0000 C   0  0  0  0  0  0  0  0  0  0  0  0
   -2.0321   -3.0285    0.0000 H   0  0  0  0  0  0  0  0  0  0  0  0
   -2.9856   -2.4000    0.0000 C   0  0  0  0  0  0  0  0  0  0  0  0
   -3.1945   -3.9863    0.0000 H   0  0  0  0  0  0  0  0  0  0  0  0
   -4.2549   -3.3740    0.0000 H   0  0  0  0  0  0  0  0  0  0  0  0
   -4.0141   -1.1743    0.0000 O   0  0  0  0  0  0  0  0  0  0  0  0
   -5.5898   -1.4522    0.0000 H   0  0  0  0  0  0  0  0  0  0  0  0
  1  2  1  0  0  0  0
  1  3  1  0  0  0  0
  3  4  1  0  0  0  0
  3  5  1  0  0  0  0
  3  6  1  0  0  0  0
  6  7  1  0  0  0  0
  6  8  1  0  0  0  0
  8  9  1  0  0  0  0
  8 10  1  0  0  0  0
  8 11  1  0  0  0  0
 11 12  1  0  0  0  0
 12 13  1  0  0  0  0
 12 14  1  0  0  0  0
 12 15  1  0  0  0  0
 15 16  1  0  0  0  0
 15 17  1  0  0  0  0
 15 18  1  0  0  0  0
 18  6  1  0  0  0  0
 18 19  1  0  0  0  0
 19 20  1  0  0  0  0
 19 21  1  0  0  0  0
 19 22  1  0  0  0  0
 22 11  1  0  0  0  0
 22 23  1  0  0  0  0
 22 24  1  0  0  0  0
 18 25  1  0  0  0  0
 25 26  1  0  0  0  0
 25 27  1  0  0  0  0
 25 28  1  0  0  0  0
 28 11  1  0  0  0  0
 28 29  1  0  0  0  0
 28 30  1  0  0  0  0
 30 31  1  0  0  0  0
 30 32  1  0  0  0  0
 30 33  1  0  0  0  0
 33 34  1  0  0  0  0
M  END
> <ChemID>
202198

> <source_casrn>
26896-48-0

> <CAS>
26896-48-0

> <SMILES>
OCC1CC23CCC1(CC2)CC3CO

> <NAME>


> <preferred_name>
Tricyclodecanedimethanol

> <iupac>
octahydro-1H-4,7-methanoindene-1,5-diyldimethanol

> <MPID>
101606

> <dsstox_substance_id>
DTXSID9044900

> <Canonical_QSARr>
OCC1CC23CCC1(CC2CO)CC3

> <InChI_Code_QSARr>
InChI=1S/C12H20O2/c13-7-9-6-12-2-1-11(9,3-4-12)5-10(12)8-14/h9-10,13-14H,1-8H2

> <InChI Key_QSARr>
YGOKKVJEXURPMZ-UHFFFAOYSA-N

> <Salt_Solvent>


> <Ready_Biodeg>
0.0

$$$$
202202
  -INDIGO-08031722522D

 33 32  0  0  0  0  0  0  0  0999 V2000
    6.9283    0.8000    0.0000 O   0  0  0  0  0  0  0  0  0  0  0  0
    8.3138    0.0000    0.0000 H   0  0  0  0  0  0  0  0  0  0  0  0
    5.5427    0.0000    0.0000 C   0  0  0  0  0  0  0  0  0  0  0  0
    4.9302   -1.4782    0.0000 H   0  0  0  0  0  0  0  0  0  0  0  0
    6.1549   -1.4782    0.0000 H   0  0  0  0  0  0  0  0  0  0  0  0
    4.1569    0.8000    0.0000 C   0  0  0  0  0  0  0  0  0  0  0  0
    4.7691    2.2782    0.0000 H   0  0  0  0  0  0  0  0  0  0  0  0
    3.5446    2.2782    0.0000 H   0  0  0  0  0  0  0  0  0  0  0  0
    2.7713    0.0000    0.0000 C   0  0  0  0  0  0  0  0  0  0  0  0
    2.1590   -1.4782    0.0000 F   0  0  0  0  0  0  0  0  0  0  0  0
    3.3835   -1.4782    0.0000 F   0  0  0  0  0  0  0  0  0  0  0  0
    1.3857    0.8000    0.0000 C   0  0  0  0  0  0  0  0  0  0  0  0
    1.9979    2.2782    0.0000 F   0  0  0  0  0  0  0  0  0  0  0  0
    0.7735    2.2782    0.0000 F   0  0  0  0  0  0  0  0  0  0  0  0
    0.0001    0.0000    0.0000 C   0  0  0  0  0  0  0  0  0  0  0  0
   -0.6124   -1.4782    0.0000 F   0  0  0  0  0  0  0  0  0  0  0  0
    0.6124   -1.4782    0.0000 F   0  0  0  0  0  0  0  0  0  0  0  0
   -1.3857    0.8000    0.0000 C   0  0  0  0  0  0  0  0  0  0  0  0
   -0.7735    2.2782    0.0000 F   0  0  0  0  0  0  0  0  0  0  0  0
   -1.9979    2.2782    0.0000 F   0  0  0  0  0  0  0  0  0  0  0  0
   -2.7713    0.0000    0.0000 C   0  0  0  0  0  0  0  0  0  0  0  0
   -3.3835   -1.4782    0.0000 F   0  0  0  0  0  0  0  0  0  0  0  0
   -2.1590   -1.4782    0.0000 F   0  0  0  0  0  0  0  0  0  0  0  0
   -4.1569    0.8000    0.0000 C   0  0  0  0  0  0  0  0  0  0  0  0
   -3.5446    2.2782    0.0000 F   0  0  0  0  0  0  0  0  0  0  0  0
   -4.7691    2.2782    0.0000 F   0  0  0  0  0  0  0  0  0  0  0  0
   -5.5424    0.0000    0.0000 C   0  0  0  0  0  0  0  0  0  0  0  0
   -6.1549   -1.4782    0.0000 F   0  0  0  0  0  0  0  0  0  0  0  0
   -4.9302   -1.4782    0.0000 F   0  0  0  0  0  0  0  0  0  0  0  0
   -6.9283    0.8000    0.0000 C   0  0  0  0  0  0  0  0  0  0  0  0
   -8.3138    1.6000    0.0000 F   0  0  0  0  0  0  0  0  0  0  0  0
   -8.3138    0.0000    0.0000 F   0  0  0  0  0  0  0  0  0  0  0  0
   -6.9283    2.4000    0.0000 F   0  0  0  0  0  0  0  0  0  0  0  0
  1  2  1  0  0  0  0
  1  3  1  0  0  0  0
  3  4  1  0  0  0  0
  3  5  1  0  0  0  0
  3  6  1  0  0  0  0
  6  7  1  0  0  0  0
  6  8  1  0  0  0  0
  6  9  1  0  0  0  0
  9 10  1  0  0  0  0
  9 11  1  0  0  0  0
  9 12  1  0  0  0  0
 12 13  1  0  0  0  0
 12 14  1  0  0  0  0
 12 15  1  0  0  0  0
 15 16  1  0  0  0  0
 15 17  1  0  0  0  0
 15 18  1  0  0  0  0
 18 19  1  0  0  0  0
 18 20  1  0  0  0  0
 18 21  1  0  0  0  0
 21 22  1  0  0  0  0
 21 23  1  0  0  0  0
 21 24  1  0  0  0  0
 24 25  1  0  0  0  0
 24 26  1  0  0  0  0
 24 27  1  0  0  0  0
 27 28  1  0  0  0  0
 27 29  1  0  0  0  0
 27 30  1  0  0  0  0
 30 31  1  0  0  0  0
 30 32  1  0  0  0  0
 30 33  1  0  0  0  0
M  END
> <ChemID>
202202

> <source_casrn>
678-39-7

> <CAS>
678-39-7

> <SMILES>
OCCC(F)(F)C(F)(F)C(F)(F)C(F)(F)C(F)(F)C(F)(F)C(F)(F)C(F)(F)F

> <NAME>


> <preferred_name>
1,1,2,2-Tetrahydroperfluoro-1-decanol

> <iupac>
3,3,4,4,5,5,6,6,7,7,8,8,9,9,10,10,10-heptadecafluorodecan-1-ol

> <MPID>
101609

> <dsstox_substance_id>
DTXSID7029904

> <Canonical_QSARr>
OCCC(F)(F)C(F)(F)C(F)(F)C(F)(F)C(F)(F)C(F)(F)C(F)(F)C(F)(F)F

> <InChI_Code_QSARr>
InChI=1S/C10H5F17O/c11-3(12,1-2-28)4(13,14)5(15,16)6(17,18)7(19,20)8(21,22)9(23,24)10(25,26)27/h28H,1-2H2

> <InChI Key_QSARr>
JJUBFBTUBACDHW-UHFFFAOYSA-N

> <Salt_Solvent>


> <Ready_Biodeg>
0.0

$$$$
202210
  -INDIGO-08031722522D

 32 32  0  0  0  0  0  0  0  0999 V2000
    6.9282    0.8000    0.0000 O   0  0  0  0  0  0  0  0  0  0  0  0
    8.3138   -0.0000    0.0000 H   0  0  0  0  0  0  0  0  0  0  0  0
    5.5426   -0.0000    0.0000 C   0  0  0  0  0  0  0  0  0  0  0  0
    6.1548   -1.4782    0.0000 H   0  0  0  0  0  0  0  0  0  0  0  0
    4.9302   -1.4782    0.0000 H   0  0  0  0  0  0  0  0  0  0  0  0
    4.1570    0.8000    0.0000 C   0  0  0  0  0  0  0  0  0  0  0  0
    3.5445    2.2782    0.0000 H   0  0  0  0  0  0  0  0  0  0  0  0
    4.7691    2.2782    0.0000 H   0  0  0  0  0  0  0  0  0  0  0  0
    2.7714   -0.0000    0.0000 O   0  0  0  0  0  0  0  0  0  0  0  0
    1.3857    0.8000    0.0000 C   0  0  0  0  0  0  0  0  0  0  0  0
    1.3857    2.4000    0.0000 O   0  0  0  0  0  0  0  0  0  0  0  0
    0.0001   -0.0000    0.0000 C   0  0  0  0  0  0  0  0  0  0  0  0
   -1.3858    0.8000    0.0000 C   0  0  0  0  0  0  0  0  0  0  0  0
   -1.3858    2.4000    0.0000 H   0  0  0  0  0  0  0  0  0  0  0  0
   -2.7714   -0.0000    0.0000 C   0  0  0  0  0  0  0  0  0  0  0  0
   -4.1570    0.8000    0.0000 H   0  0  0  0  0  0  0  0  0  0  0  0
   -2.7714   -1.6000    0.0000 C   0  0  0  0  0  0  0  0  0  0  0  0
   -4.1570   -2.4000    0.0000 C   0  0  0  0  0  0  0  0  0  0  0  0
   -4.1570   -4.0000    0.0000 O   0  0  0  0  0  0  0  0  0  0  0  0
   -5.5426   -1.6000    0.0000 O   0  0  0  0  0  0  0  0  0  0  0  0
   -6.9283   -2.4000    0.0000 C   0  0  0  0  0  0  0  0  0  0  0  0
   -6.3158   -3.8782    0.0000 H   0  0  0  0  0  0  0  0  0  0  0  0
   -7.5404   -3.8782    0.0000 H   0  0  0  0  0  0  0  0  0  0  0  0
   -8.3139   -1.6000    0.0000 C   0  0  0  0  0  0  0  0  0  0  0  0
   -8.9260   -0.1218    0.0000 H   0  0  0  0  0  0  0  0  0  0  0  0
   -7.7014   -0.1218    0.0000 H   0  0  0  0  0  0  0  0  0  0  0  0
   -9.6995   -2.4000    0.0000 O   0  0  0  0  0  0  0  0  0  0  0  0
  -11.0851   -1.6000    0.0000 H   0  0  0  0  0  0  0  0  0  0  0  0
   -1.3858   -2.4000    0.0000 C   0  0  0  0  0  0  0  0  0  0  0  0
   -1.3858   -4.0000    0.0000 H   0  0  0  0  0  0  0  0  0  0  0  0
    0.0001   -1.6000    0.0000 C   0  0  0  0  0  0  0  0  0  0  0  0
    1.3857   -2.4000    0.0000 H   0  0  0  0  0  0  0  0  0  0  0  0
  1  2  1  0  0  0  0
  1  3  1  0  0  0  0
  3  4  1  0  0  0  0
  3  5  1  0  0  0  0
  3  6  1  0  0  0  0
  6  7  1  0  0  0  0
  6  8  1  0  0  0  0
  6  9  1  0  0  0  0
  9 10  1  0  0  0  0
 10 11  2  0  0  0  0
 10 12  1  0  0  0  0
 12 13  1  0  0  0  0
 13 14  1  0  0  0  0
 13 15  2  0  0  0  0
 15 16  1  0  0  0  0
 15 17  1  0  0  0  0
 17 18  1  0  0  0  0
 18 19  2  0  0  0  0
 18 20  1  0  0  0  0
 20 21  1  0  0  0  0
 21 22  1  0  0  0  0
 21 23  1  0  0  0  0
 21 24  1  0  0  0  0
 24 25  1  0  0  0  0
 24 26  1  0  0  0  0
 24 27  1  0  0  0  0
 27 28  1  0  0  0  0
 17 29  2  0  0  0  0
 29 30  1  0  0  0  0
 29 31  1  0  0  0  0
 31 12  2  0  0  0  0
 31 32  1  0  0  0  0
M  END
> <ChemID>
202210

> <source_casrn>
959-26-2

> <CAS>
959-26-2

> <SMILES>
OCCOC(=O)c1ccc(cc1)C(=O)OCCO

> <NAME>


> <preferred_name>
bis(Hydroxyethyl) terephthalate

> <iupac>
bis(2-hydroxyethyl) terephthalate

> <MPID>
101610

> <dsstox_substance_id>
DTXSID3052644

> <Canonical_QSARr>
OCCOC(=O)c1ccc(cc1)C(=O)OCCO

> <InChI_Code_QSARr>
InChI=1S/C12H14O6/c13-5-7-17-11(15)9-1-2-10(4-3-9)12(16)18-8-6-14/h1-4,13-14H,5-8H2

> <InChI Key_QSARr>
QPKOBORKPHRBPS-UHFFFAOYSA-N

> <Salt_Solvent>


> <Ready_Biodeg>
1.0

$$$$
202218
  -INDIGO-08031722522D

 33 36  0  0  0  0  0  0  0  0999 V2000
    2.1411   -2.3780    0.0000 O   0  0  0  0  0  0  0  0  0  0  0  0
    3.2119   -3.5671    0.0000 H   0  0  0  0  0  0  0  0  0  0  0  0
    2.6356   -0.8564    0.0000 C   0  0  0  0  0  0  0  0  0  0  0  0
    4.2007   -0.5237    0.0000 C   0  0  0  0  0  0  0  0  0  0  0  0
    5.2713   -1.7128    0.0000 Br  0  0  0  0  0  0  0  0  0  0  0  0
    4.6952    0.9980    0.0000 C   0  0  0  0  0  0  0  0  0  0  0  0
    6.2600    1.3306    0.0000 C   0  0  0  0  0  0  0  0  0  0  0  0
    7.3308    0.1417    0.0000 H   0  0  0  0  0  0  0  0  0  0  0  0
    6.7545    2.8524    0.0000 C   0  0  0  0  0  0  0  0  0  0  0  0
    8.3196    3.1850    0.0000 H   0  0  0  0  0  0  0  0  0  0  0  0
    5.6840    4.0414    0.0000 C   0  0  0  0  0  0  0  0  0  0  0  0
    6.1785    5.5630    0.0000 H   0  0  0  0  0  0  0  0  0  0  0  0
    4.1189    3.7087    0.0000 C   0  0  0  0  0  0  0  0  0  0  0  0
    3.0483    4.8977    0.0000 H   0  0  0  0  0  0  0  0  0  0  0  0
    3.6246    2.1870    0.0000 C   0  0  0  0  0  0  0  0  0  0  0  0
    2.0595    1.8543    0.0000 N   0  0  0  0  0  0  0  0  0  0  0  0
    1.5650    0.3327    0.0000 C   0  0  0  0  0  0  0  0  0  0  0  0
   -0.0000   -0.0000    0.0000 C   0  0  0  0  0  0  0  0  0  0  0  0
    0.4945   -1.5216    0.0000 H   0  0  0  0  0  0  0  0  0  0  0  0
   -1.4618   -0.6508    0.0000 C   0  0  0  0  0  0  0  0  0  0  0  0
   -1.7942   -2.2159    0.0000 O   0  0  0  0  0  0  0  0  0  0  0  0
   -2.5323    0.5383    0.0000 C   0  0  0  0  0  0  0  0  0  0  0  0
   -4.1323    0.5383    0.0000 C   0  0  0  0  0  0  0  0  0  0  0  0
   -4.9323   -0.8473    0.0000 H   0  0  0  0  0  0  0  0  0  0  0  0
   -4.9323    1.9239    0.0000 C   0  0  0  0  0  0  0  0  0  0  0  0
   -6.5323    1.9239    0.0000 H   0  0  0  0  0  0  0  0  0  0  0  0
   -4.1323    3.3096    0.0000 C   0  0  0  0  0  0  0  0  0  0  0  0
   -4.9323    4.6952    0.0000 H   0  0  0  0  0  0  0  0  0  0  0  0
   -2.5323    3.3096    0.0000 C   0  0  0  0  0  0  0  0  0  0  0  0
   -1.7324    4.6952    0.0000 H   0  0  0  0  0  0  0  0  0  0  0  0
   -1.7324    1.9239    0.0000 C   0  0  0  0  0  0  0  0  0  0  0  0
   -0.1673    1.5913    0.0000 C   0  0  0  0  0  0  0  0  0  0  0  0
    1.0218    2.6619    0.0000 O   0  0  0  0  0  0  0  0  0  0  0  0
  1  2  1  0  0  0  0
  1  3  1  0  0  0  0
  3  4  2  0  0  0  0
  4  5  1  0  0  0  0
  4  6  1  0  0  0  0
  6  7  1  0  0  0  0
  7  8  1  0  0  0  0
  7  9  2  0  0  0  0
  9 10  1  0  0  0  0
  9 11  1  0  0  0  0
 11 12  1  0  0  0  0
 11 13  2  0  0  0  0
 13 14  1  0  0  0  0
 13 15  1  0  0  0  0
 15  6  2  0  0  0  0
 15 16  1  0  0  0  0
 16 17  2  0  0  0  0
 17  3  1  0  0  0  0
 17 18  1  0  0  0  0
 18 19  1  0  0  0  0
 18 20  1  0  0  0  0
 20 21  2  0  0  0  0
 20 22  1  0  0  0  0
 22 23  1  0  0  0  0
 23 24  1  0  0  0  0
 23 25  2  0  0  0  0
 25 26  1  0  0  0  0
 25 27  1  0  0  0  0
 27 28  1  0  0  0  0
 27 29  2  0  0  0  0
 29 30  1  0  0  0  0
 29 31  1  0  0  0  0
 31 22  2  0  0  0  0
 31 32  1  0  0  0  0
 32 18  1  0  0  0  0
 32 33  2  0  0  0  0
M  END
> <ChemID>
202218

> <source_casrn>
10319-14-9

> <CAS>
10319-14-9

> <SMILES>
Oc1c(Br)c2ccccc2nc1C3C(=O)c4ccccc4C3=O

> <NAME>


> <preferred_name>
C.I. Disperse Yellow 64

> <iupac>
2-(4-bromo-3-hydroxyquinolin-2-yl)-1H-indene-1,3(2H)-dione

> <MPID>
101613

> <dsstox_substance_id>
DTXSID2044503

> <Canonical_QSARr>
Oc1c(Br)c2ccccc2[n]c1C1C(=O)c2ccccc2C1=O

> <InChI_Code_QSARr>
InChI=1S/C18H10BrNO3/c19-14-11-7-3-4-8-12(11)20-15(18(14)23)13-16(21)9-5-1-2-6-10(9)17(13)22/h1-8,13,23H

> <InChI Key_QSARr>
DVBLPJWQXDCAKU-UHFFFAOYSA-N

> <Salt_Solvent>


> <Ready_Biodeg>
0.0

$$$$
202242
  -INDIGO-08031722522D

 15 15  0  0  0  0  0  0  0  0999 V2000
    4.8001   -0.0000    0.0000 O   0  0  0  0  0  0  0  0  0  0  0  0
    5.6000    1.3856    0.0000 H   0  0  0  0  0  0  0  0  0  0  0  0
    3.2001   -0.0000    0.0000 C   0  0  0  0  0  0  0  0  0  0  0  0
    2.4000    1.3856    0.0000 C   0  0  0  0  0  0  0  0  0  0  0  0
    3.2001    2.7713    0.0000 H   0  0  0  0  0  0  0  0  0  0  0  0
    0.8000    1.3856    0.0000 C   0  0  0  0  0  0  0  0  0  0  0  0
    0.0001    2.7713    0.0000 H   0  0  0  0  0  0  0  0  0  0  0  0
    0.0001   -0.0000    0.0000 C   0  0  0  0  0  0  0  0  0  0  0  0
   -1.5999   -0.0000    0.0000 C   0  0  0  0  0  0  0  0  0  0  0  0
   -2.4000    1.3856    0.0000 H   0  0  0  0  0  0  0  0  0  0  0  0
   -2.4000   -1.3856    0.0000 O   0  0  0  0  0  0  0  0  0  0  0  0
    0.8000   -1.3856    0.0000 C   0  0  0  0  0  0  0  0  0  0  0  0
    0.0001   -2.7713    0.0000 H   0  0  0  0  0  0  0  0  0  0  0  0
    2.4000   -1.3856    0.0000 C   0  0  0  0  0  0  0  0  0  0  0  0
    3.2001   -2.7713    0.0000 H   0  0  0  0  0  0  0  0  0  0  0  0
  1  2  1  0  0  0  0
  1  3  1  0  0  0  0
  3  4  1  0  0  0  0
  4  5  1  0  0  0  0
  4  6  2  0  0  0  0
  6  7  1  0  0  0  0
  6  8  1  0  0  0  0
  8  9  1  0  0  0  0
  9 10  1  0  0  0  0
  9 11  2  0  0  0  0
  8 12  2  0  0  0  0
 12 13  1  0  0  0  0
 12 14  1  0  0  0  0
 14  3  2  0  0  0  0
 14 15  1  0  0  0  0
M  END
> <ChemID>
202242

> <source_casrn>
123-08-0

> <CAS>
123-08-0

> <SMILES>
Oc1ccc(C=O)cc1

> <NAME>


> <preferred_name>
p-Hydroxybenzaldehyde

> <iupac>
4-HYDROXYBENZALDEHYDE

> <MPID>
101617

> <dsstox_substance_id>
DTXSID8059552

> <Canonical_QSARr>
Oc1ccc(C=O)cc1

> <InChI_Code_QSARr>
InChI=1S/C7H6O2/c8-5-6-1-3-7(9)4-2-6/h1-5,9H

> <InChI Key_QSARr>
RGHHSNMVTDWUBI-UHFFFAOYSA-N

> <Salt_Solvent>


> <Ready_Biodeg>
1.0

$$$$
202250
  -INDIGO-08031722522D

 28 29  0  0  0  0  0  0  0  0999 V2000
    7.6883   -0.3113    0.0000 O   0  0  0  0  0  0  0  0  0  0  0  0
    8.7169    0.9143    0.0000 H   0  0  0  0  0  0  0  0  0  0  0  0
    6.1128   -0.0335    0.0000 C   0  0  0  0  0  0  0  0  0  0  0  0
    5.0843   -1.2591    0.0000 C   0  0  0  0  0  0  0  0  0  0  0  0
    5.6315   -2.7627    0.0000 H   0  0  0  0  0  0  0  0  0  0  0  0
    3.5085   -0.9813    0.0000 C   0  0  0  0  0  0  0  0  0  0  0  0
    2.4800   -2.2071    0.0000 H   0  0  0  0  0  0  0  0  0  0  0  0
    2.9613    0.5222    0.0000 C   0  0  0  0  0  0  0  0  0  0  0  0
    1.3856    0.8000    0.0000 C   0  0  0  0  0  0  0  0  0  0  0  0
    1.1077    2.3757    0.0000 O   0  0  0  0  0  0  0  0  0  0  0  0
   -0.0000    0.0001    0.0000 C   0  0  0  0  0  0  0  0  0  0  0  0
   -0.0000   -1.6000    0.0000 C   0  0  0  0  0  0  0  0  0  0  0  0
    1.3856   -2.4000    0.0000 H   0  0  0  0  0  0  0  0  0  0  0  0
   -1.3856   -2.4000    0.0000 C   0  0  0  0  0  0  0  0  0  0  0  0
   -1.3856   -4.0000    0.0000 H   0  0  0  0  0  0  0  0  0  0  0  0
   -2.7712   -1.6000    0.0000 C   0  0  0  0  0  0  0  0  0  0  0  0
   -4.1570   -2.4000    0.0000 O   0  0  0  0  0  0  0  0  0  0  0  0
   -4.1570   -4.0000    0.0000 H   0  0  0  0  0  0  0  0  0  0  0  0
   -2.7712    0.0001    0.0000 C   0  0  0  0  0  0  0  0  0  0  0  0
   -4.1570    0.8000    0.0000 O   0  0  0  0  0  0  0  0  0  0  0  0
   -5.5426    0.0001    0.0000 H   0  0  0  0  0  0  0  0  0  0  0  0
   -1.3856    0.8000    0.0000 C   0  0  0  0  0  0  0  0  0  0  0  0
   -1.3856    2.4000    0.0000 O   0  0  0  0  0  0  0  0  0  0  0  0
   -2.7712    3.2000    0.0000 H   0  0  0  0  0  0  0  0  0  0  0  0
    3.9898    1.7479    0.0000 C   0  0  0  0  0  0  0  0  0  0  0  0
    3.4426    3.2513    0.0000 H   0  0  0  0  0  0  0  0  0  0  0  0
    5.5656    1.4700    0.0000 C   0  0  0  0  0  0  0  0  0  0  0  0
    6.5939    2.6957    0.0000 H   0  0  0  0  0  0  0  0  0  0  0  0
  1  2  1  0  0  0  0
  1  3  1  0  0  0  0
  3  4  1  0  0  0  0
  4  5  1  0  0  0  0
  4  6  2  0  0  0  0
  6  7  1  0  0  0  0
  6  8  1  0  0  0  0
  8  9  1  0  0  0  0
  9 10  2  0  0  0  0
  9 11  1  0  0  0  0
 11 12  1  0  0  0  0
 12 13  1  0  0  0  0
 12 14  2  0  0  0  0
 14 15  1  0  0  0  0
 14 16  1  0  0  0  0
 16 17  1  0  0  0  0
 17 18  1  0  0  0  0
 16 19  2  0  0  0  0
 19 20  1  0  0  0  0
 20 21  1  0  0  0  0
 19 22  1  0  0  0  0
 22 11  2  0  0  0  0
 22 23  1  0  0  0  0
 23 24  1  0  0  0  0
  8 25  2  0  0  0  0
 25 26  1  0  0  0  0
 25 27  1  0  0  0  0
 27  3  2  0  0  0  0
 27 28  1  0  0  0  0
M  END
> <ChemID>
202250

> <source_casrn>
31127-54-5

> <CAS>
31127-54-5

> <SMILES>
Oc1ccc(cc1)C(=O)c2ccc(O)c(O)c2O

> <NAME>


> <preferred_name>
2,3,4,4'-Tetrahydroxybenzophenone

> <iupac>
(4-hydroxyphenyl)(2,3,4-trihydroxyphenyl)methanone

> <MPID>
101620

> <dsstox_substance_id>
DTXSID5047956

> <Canonical_QSARr>
Oc1ccc(cc1)C(=O)c1ccc(O)c(O)c1O

> <InChI_Code_QSARr>
InChI=1S/C13H10O5/c14-8-3-1-7(2-4-8)11(16)9-5-6-10(15)13(18)12(9)17/h1-6,14-15,17-18H

> <InChI Key_QSARr>
ZRDYULMDEGRWRC-UHFFFAOYSA-N

> <Salt_Solvent>


> <Ready_Biodeg>
0.0

$$$$
202266
  -INDIGO-08031722522D

 12 12  0  0  0  0  0  0  0  0999 V2000
    3.0349    2.8161    0.0000 S   0  0  0  0  0  0  0  0  0  0  0  0
    2.0944    1.5217    0.0000 C   0  0  0  0  0  0  0  0  0  0  0  0
    2.5888   -0.0000    0.0000 N   0  0  0  0  0  0  0  0  0  0  0  0
    4.1105   -0.4945    0.0000 H   0  0  0  0  0  0  0  0  0  0  0  0
    1.2945   -0.9405    0.0000 C   0  0  0  0  0  0  0  0  0  0  0  0
    2.3650   -2.1295    0.0000 H   0  0  0  0  0  0  0  0  0  0  0  0
    0.2238   -2.1295    0.0000 H   0  0  0  0  0  0  0  0  0  0  0  0
    0.0000   -0.0000    0.0000 C   0  0  0  0  0  0  0  0  0  0  0  0
   -0.8000   -1.3856    0.0000 H   0  0  0  0  0  0  0  0  0  0  0  0
   -1.4617    0.6508    0.0000 H   0  0  0  0  0  0  0  0  0  0  0  0
    0.4944    1.5217    0.0000 N   0  0  0  0  0  0  0  0  0  0  0  0
   -0.4460    2.8161    0.0000 H   0  0  0  0  0  0  0  0  0  0  0  0
  1  2  2  0  0  0  0
  2  3  1  0  0  0  0
  3  4  1  0  0  0  0
  3  5  1  0  0  0  0
  5  6  1  0  0  0  0
  5  7  1  0  0  0  0
  5  8  1  0  0  0  0
  8  9  1  0  0  0  0
  8 10  1  0  0  0  0
  8 11  1  0  0  0  0
 11  2  1  0  0  0  0
 11 12  1  0  0  0  0
M  END
> <ChemID>
202266

> <source_casrn>
96-45-7

> <CAS>
96-45-7

> <SMILES>
S=C1NCCN1

> <NAME>


> <preferred_name>
Ethylene thiourea

> <iupac>
imidazolidine-2-thione

> <MPID>
101626

> <dsstox_substance_id>
DTXSID5020601

> <Canonical_QSARr>
S=C1NCCN1

> <InChI_Code_QSARr>
InChI=1S/C3H6N2S/c6-3-4-1-2-5-3/h1-2H2,(H2,4,5,6)

> <InChI Key_QSARr>
PDQAZBWRQCGBEV-UHFFFAOYSA-N

> <Salt_Solvent>


> <Ready_Biodeg>
0.0

$$$$
202270
  -INDIGO-08031722522D

 15 14  0  0  0  0  0  0  0  0999 V2000
    2.4000    1.3856    0.0000 O   0  0  0  0  0  0  0  0  0  0  0  0
    4.0000    1.3856    0.0000 H   0  0  0  0  0  0  0  0  0  0  0  0
    1.6001    0.0000    0.0000 C   0  0  0  0  0  0  0  0  0  0  0  0
    1.8088   -1.5863    0.0000 H   0  0  0  0  0  0  0  0  0  0  0  0
    2.8694   -0.9740    0.0000 H   0  0  0  0  0  0  0  0  0  0  0  0
    0.0001    0.0000    0.0000 C   0  0  0  0  0  0  0  0  0  0  0  0
    0.0001   -1.6000    0.0000 Br  0  0  0  0  0  0  0  0  0  0  0  0
   -1.5999    0.0000    0.0000 C   0  0  0  0  0  0  0  0  0  0  0  0
   -2.8694   -0.9740    0.0000 H   0  0  0  0  0  0  0  0  0  0  0  0
   -1.8088   -1.5863    0.0000 H   0  0  0  0  0  0  0  0  0  0  0  0
   -2.4000    1.3856    0.0000 O   0  0  0  0  0  0  0  0  0  0  0  0
   -4.0000    1.3856    0.0000 H   0  0  0  0  0  0  0  0  0  0  0  0
    0.0001    1.6000    0.0000 N   0  0  0  0  0  0  0  0  0  0  0  0
    1.3856    2.4000    0.0000 O   0  0  0  0  0  0  0  0  0  0  0  0
   -1.3856    2.4000    0.0000 O   0  0  0  0  0  0  0  0  0  0  0  0
  1  2  1  0  0  0  0
  1  3  1  0  0  0  0
  3  4  1  0  0  0  0
  3  5  1  0  0  0  0
  3  6  1  0  0  0  0
  6  7  1  0  0  0  0
  6  8  1  0  0  0  0
  8  9  1  0  0  0  0
  8 10  1  0  0  0  0
  8 11  1  0  0  0  0
 11 12  1  0  0  0  0
  6 13  1  0  0  0  0
 13 14  1  0  0  0  0
 13 15  2  0  0  0  0
M  CHG  2  13   1  14  -1
M  END
> <ChemID>
202270

> <source_casrn>
52-51-7

> <CAS>
52-51-7

> <SMILES>
OCC(Br)(CO)[N+]([O-])=O

> <NAME>


> <preferred_name>
Bronopol

> <iupac>
2-bromo-2-nitropropane-1,3-diol

> <MPID>
101627

> <dsstox_substance_id>
DTXSID8024652

> <Canonical_QSARr>
[O-][N+](=O)C(Br)(CO)CO

> <InChI_Code_QSARr>
InChI=1S/C3H6BrNO4/c4-3(1-6,2-7)5(8)9/h6-7H,1-2H2

> <InChI Key_QSARr>
LVDKZNITIUWNER-UHFFFAOYSA-N

> <Salt_Solvent>


> <Ready_Biodeg>
0.0

$$$$
202274
  -INDIGO-08031722522D

 14 14  0  0  0  0  0  0  0  0999 V2000
    2.4000   -1.3856    0.0000 O   0  0  0  0  0  0  0  0  0  0  0  0
    1.6000   -0.0000    0.0000 N   0  0  0  0  0  0  0  0  0  0  0  0
    2.4000    1.3856    0.0000 O   0  0  0  0  0  0  0  0  0  0  0  0
    0.0000   -0.0000    0.0000 C   0  0  0  0  0  0  0  0  0  0  0  0
   -0.8000    1.3856    0.0000 C   0  0  0  0  0  0  0  0  0  0  0  0
    0.0000    2.7713    0.0000 H   0  0  0  0  0  0  0  0  0  0  0  0
   -2.4000    1.3856    0.0000 C   0  0  0  0  0  0  0  0  0  0  0  0
   -3.2000    2.7713    0.0000 Cl  0  0  0  0  0  0  0  0  0  0  0  0
   -3.2000   -0.0000    0.0000 C   0  0  0  0  0  0  0  0  0  0  0  0
   -4.8000   -0.0000    0.0000 H   0  0  0  0  0  0  0  0  0  0  0  0
   -2.4000   -1.3856    0.0000 C   0  0  0  0  0  0  0  0  0  0  0  0
   -3.2000   -2.7713    0.0000 H   0  0  0  0  0  0  0  0  0  0  0  0
   -0.8000   -1.3856    0.0000 C   0  0  0  0  0  0  0  0  0  0  0  0
    0.0000   -2.7713    0.0000 Cl  0  0  0  0  0  0  0  0  0  0  0  0
  1  2  1  0  0  0  0
  2  3  2  0  0  0  0
  2  4  1  0  0  0  0
  4  5  1  0  0  0  0
  5  6  1  0  0  0  0
  5  7  2  0  0  0  0
  7  8  1  0  0  0  0
  7  9  1  0  0  0  0
  9 10  1  0  0  0  0
  9 11  2  0  0  0  0
 11 12  1  0  0  0  0
 11 13  1  0  0  0  0
 13  4  2  0  0  0  0
 13 14  1  0  0  0  0
M  CHG  2   1  -1   2   1
M  END
> <ChemID>
202274

> <source_casrn>
89-61-2

> <CAS>
89-61-2

> <SMILES>
[O-][N+](=O)c1cc(Cl)ccc1Cl

> <NAME>


> <preferred_name>
1,4-Dichloro-2-nitrobenzene

> <iupac>
1,4-dichloro-2-nitrobenzene

> <MPID>
101628

> <dsstox_substance_id>
DTXSID7052602

> <Canonical_QSARr>
[O-][N+](=O)c1cc(Cl)ccc1Cl

> <InChI_Code_QSARr>
InChI=1S/C6H3Cl2NO2/c7-4-1-2-5(8)6(3-4)9(10)11/h1-3H

> <InChI Key_QSARr>
RZKKOBGFCAHLCZ-UHFFFAOYSA-N

> <Salt_Solvent>


> <Ready_Biodeg>
0.0

$$$$
202282
  -INDIGO-08031722522D

 17 17  0  0  0  0  0  0  0  0999 V2000
    5.6000   -1.3856    0.0000 O   0  0  0  0  0  0  0  0  0  0  0  0
    4.8000   -0.0000    0.0000 N   0  0  0  0  0  0  0  0  0  0  0  0
    5.6000    1.3856    0.0000 O   0  0  0  0  0  0  0  0  0  0  0  0
    3.2000   -0.0000    0.0000 C   0  0  0  0  0  0  0  0  0  0  0  0
    2.4000    1.3856    0.0000 C   0  0  0  0  0  0  0  0  0  0  0  0
    3.2000    2.7713    0.0000 H   0  0  0  0  0  0  0  0  0  0  0  0
    0.8000    1.3856    0.0000 C   0  0  0  0  0  0  0  0  0  0  0  0
    0.0000    2.7713    0.0000 H   0  0  0  0  0  0  0  0  0  0  0  0
    0.0000   -0.0000    0.0000 C   0  0  0  0  0  0  0  0  0  0  0  0
   -1.6001   -0.0000    0.0000 C   0  0  0  0  0  0  0  0  0  0  0  0
   -3.2000   -0.0000    0.0000 H   0  0  0  0  0  0  0  0  0  0  0  0
   -2.4000   -1.3856    0.0000 H   0  0  0  0  0  0  0  0  0  0  0  0
   -2.4000    1.3856    0.0000 Cl  0  0  0  0  0  0  0  0  0  0  0  0
    0.8000   -1.3856    0.0000 C   0  0  0  0  0  0  0  0  0  0  0  0
    0.0000   -2.7713    0.0000 H   0  0  0  0  0  0  0  0  0  0  0  0
    2.4000   -1.3856    0.0000 C   0  0  0  0  0  0  0  0  0  0  0  0
    3.2000   -2.7713    0.0000 H   0  0  0  0  0  0  0  0  0  0  0  0
  1  2  1  0  0  0  0
  2  3  2  0  0  0  0
  2  4  1  0  0  0  0
  4  5  1  0  0  0  0
  5  6  1  0  0  0  0
  5  7  2  0  0  0  0
  7  8  1  0  0  0  0
  7  9  1  0  0  0  0
  9 10  1  0  0  0  0
 10 11  1  0  0  0  0
 10 12  1  0  0  0  0
 10 13  1  0  0  0  0
  9 14  2  0  0  0  0
 14 15  1  0  0  0  0
 14 16  1  0  0  0  0
 16  4  2  0  0  0  0
 16 17  1  0  0  0  0
M  CHG  2   1  -1   2   1
M  END
> <ChemID>
202282

> <source_casrn>
100-14-1

> <CAS>
100-14-1

> <SMILES>
[O-][N+](=O)c1ccc(CCl)cc1

> <NAME>


> <preferred_name>
4-Nitrobenzyl chloride

> <iupac>
1-(chloromethyl)-4-nitrobenzene

> <MPID>
101631

> <dsstox_substance_id>
DTXSID4025745

> <Canonical_QSARr>
[O-][N+](=O)c1ccc(CCl)cc1

> <InChI_Code_QSARr>
InChI=1S/C7H6ClNO2/c8-5-6-1-3-7(4-2-6)9(10)11/h1-4H,5H2

> <InChI Key_QSARr>
KGCNHWXDPDPSBV-UHFFFAOYSA-N

> <Salt_Solvent>


> <Ready_Biodeg>
0.0

$$$$
202290
  -INDIGO-08031722522D

 14 14  0  0  0  0  0  0  0  0999 V2000
    2.4000   -1.3856    0.0000 O   0  0  0  0  0  0  0  0  0  0  0  0
    1.6000   -0.0000    0.0000 N   0  0  0  0  0  0  0  0  0  0  0  0
    2.4000    1.3856    0.0000 O   0  0  0  0  0  0  0  0  0  0  0  0
    0.0000   -0.0000    0.0000 C   0  0  0  0  0  0  0  0  0  0  0  0
   -0.8000    1.3856    0.0000 C   0  0  0  0  0  0  0  0  0  0  0  0
    0.0000    2.7713    0.0000 H   0  0  0  0  0  0  0  0  0  0  0  0
   -2.4000    1.3856    0.0000 C   0  0  0  0  0  0  0  0  0  0  0  0
   -3.2000    2.7713    0.0000 H   0  0  0  0  0  0  0  0  0  0  0  0
   -3.2000   -0.0000    0.0000 C   0  0  0  0  0  0  0  0  0  0  0  0
   -4.8000   -0.0000    0.0000 H   0  0  0  0  0  0  0  0  0  0  0  0
   -2.4000   -1.3856    0.0000 C   0  0  0  0  0  0  0  0  0  0  0  0
   -3.2000   -2.7713    0.0000 Cl  0  0  0  0  0  0  0  0  0  0  0  0
   -0.8000   -1.3856    0.0000 C   0  0  0  0  0  0  0  0  0  0  0  0
    0.0000   -2.7713    0.0000 Cl  0  0  0  0  0  0  0  0  0  0  0  0
  1  2  1  0  0  0  0
  2  3  2  0  0  0  0
  2  4  1  0  0  0  0
  4  5  1  0  0  0  0
  5  6  1  0  0  0  0
  5  7  2  0  0  0  0
  7  8  1  0  0  0  0
  7  9  1  0  0  0  0
  9 10  1  0  0  0  0
  9 11  2  0  0  0  0
 11 12  1  0  0  0  0
 11 13  1  0  0  0  0
 13  4  2  0  0  0  0
 13 14  1  0  0  0  0
M  CHG  2   1  -1   2   1
M  END
> <ChemID>
202290

> <source_casrn>
3209-22-1

> <CAS>
3209-22-1

> <SMILES>
[O-][N+](=O)c1cccc(Cl)c1Cl

> <NAME>


> <preferred_name>
2,3-Dichloronitrobenzene

> <iupac>
1,2-dichloro-3-nitrobenzene

> <MPID>
101633

> <dsstox_substance_id>
DTXSID8024997

> <Canonical_QSARr>
[O-][N+](=O)c1cccc(Cl)c1Cl

> <InChI_Code_QSARr>
InChI=1S/C6H3Cl2NO2/c7-4-2-1-3-5(6(4)8)9(10)11/h1-3H

> <InChI Key_QSARr>
CMVQZRLQEOAYSW-UHFFFAOYSA-N

> <Salt_Solvent>


> <Ready_Biodeg>
0.0

$$$$
202298
  -INDIGO-08031722522D

  9  9  0  0  0  0  0  0  0  0999 V2000
    0.0000    0.0000    0.0000 N   0  0  0  0  0  0  0  0  0  0  0  0
    0.6508    1.4617    0.0000 H   0  0  0  0  0  0  0  0  0  0  0  0
   -1.5650   -0.3327    0.0000 C   0  0  0  0  0  0  0  0  0  0  0  0
   -2.7541    0.7379    0.0000 H   0  0  0  0  0  0  0  0  0  0  0  0
   -1.7323   -1.9239    0.0000 C   0  0  0  0  0  0  0  0  0  0  0  0
   -3.1179   -2.7239    0.0000 H   0  0  0  0  0  0  0  0  0  0  0  0
   -0.2706   -2.5747    0.0000 N   0  0  0  0  0  0  0  0  0  0  0  0
    0.8000   -1.3856    0.0000 C   0  0  0  0  0  0  0  0  0  0  0  0
    2.3912   -1.5529    0.0000 H   0  0  0  0  0  0  0  0  0  0  0  0
  1  2  1  0  0  0  0
  1  3  1  0  0  0  0
  3  4  1  0  0  0  0
  3  5  2  0  0  0  0
  5  6  1  0  0  0  0
  5  7  1  0  0  0  0
  7  8  2  0  0  0  0
  8  1  1  0  0  0  0
  8  9  1  0  0  0  0
M  END
> <ChemID>
202298

> <source_casrn>
288-32-4

> <CAS>
288-32-4

> <SMILES>
[nH]1ccnc1

> <NAME>


> <preferred_name>
Imidazole

> <iupac>
C3H4N2

> <MPID>
101635

> <dsstox_substance_id>
DTXSID2029616

> <Canonical_QSARr>
c1[nH]cc[n]1

> <InChI_Code_QSARr>
InChI=1S/C3H4N2/c1-2-5-3-4-1/h1-3H,(H,4,5)

> <InChI Key_QSARr>
RAXXELZNTBOGNW-UHFFFAOYSA-N

> <Salt_Solvent>


> <Ready_Biodeg>
1.0

$$$$
202310
  -INDIGO-08031722522D

 14 15  0  0  0  0  0  0  0  0999 V2000
    1.7322   -1.9239    0.0000 N   0  0  0  0  0  0  0  0  0  0  0  0
    3.1179   -2.7239    0.0000 H   0  0  0  0  0  0  0  0  0  0  0  0
    0.2706   -2.5746    0.0000 N   0  0  0  0  0  0  0  0  0  0  0  0
   -0.8000   -1.3856    0.0000 C   0  0  0  0  0  0  0  0  0  0  0  0
   -2.4000   -1.3856    0.0000 C   0  0  0  0  0  0  0  0  0  0  0  0
   -3.2000   -2.7713    0.0000 H   0  0  0  0  0  0  0  0  0  0  0  0
   -3.2000   -0.0000    0.0000 C   0  0  0  0  0  0  0  0  0  0  0  0
   -4.8000   -0.0000    0.0000 H   0  0  0  0  0  0  0  0  0  0  0  0
   -2.4000    1.3856    0.0000 C   0  0  0  0  0  0  0  0  0  0  0  0
   -3.2000    2.7713    0.0000 H   0  0  0  0  0  0  0  0  0  0  0  0
   -0.8000    1.3856    0.0000 C   0  0  0  0  0  0  0  0  0  0  0  0
    0.0000    2.7713    0.0000 H   0  0  0  0  0  0  0  0  0  0  0  0
    0.0000   -0.0000    0.0000 C   0  0  0  0  0  0  0  0  0  0  0  0
    1.5650   -0.3327    0.0000 N   0  0  0  0  0  0  0  0  0  0  0  0
  1  2  1  0  0  0  0
  1  3  1  0  0  0  0
  3  4  2  0  0  0  0
  4  5  1  0  0  0  0
  5  6  1  0  0  0  0
  5  7  2  0  0  0  0
  7  8  1  0  0  0  0
  7  9  1  0  0  0  0
  9 10  1  0  0  0  0
  9 11  2  0  0  0  0
 11 12  1  0  0  0  0
 11 13  1  0  0  0  0
 13  4  1  0  0  0  0
 13 14  2  0  0  0  0
 14  1  1  0  0  0  0
M  END
> <ChemID>
202310

> <source_casrn>
95-14-7

> <CAS>
95-14-7

> <SMILES>
[nH]1nc2ccccc2n1

> <NAME>


> <preferred_name>
1,2,3-Benzotriazole

> <iupac>
1H-benzotriazole

> <MPID>
101637

> <dsstox_substance_id>
DTXSID6020147

> <Canonical_QSARr>
c1cccc2[n][nH][n]c21

> <InChI_Code_QSARr>
InChI=1S/C6H5N3/c1-2-4-6-5(3-1)7-9-8-6/h1-4H,(H,7,8,9)

> <InChI Key_QSARr>
QRUDEWIWKLJBPS-UHFFFAOYSA-N

> <Salt_Solvent>


> <Ready_Biodeg>
0.0

$$$$
