100006
  -INDIGO-08031723152D

 43 45  0  0  0  0  0  0  0  0999 V2000
    7.1373    1.0220    0.0000 C   0  0  0  0  0  0  0  0  0  0  0  0
    8.4179    0.0627    0.0000 C   0  0  0  0  0  0  0  0  0  0  0  0
    8.2272   -1.5258    0.0000 H   0  0  0  0  0  0  0  0  0  0  0  0
    9.8888    0.6921    0.0000 C   0  0  0  0  0  0  0  0  0  0  0  0
   11.1694   -0.2672    0.0000 H   0  0  0  0  0  0  0  0  0  0  0  0
   10.0795    2.2807    0.0000 C   0  0  0  0  0  0  0  0  0  0  0  0
   11.5504    2.9100    0.0000 H   0  0  0  0  0  0  0  0  0  0  0  0
    8.7989    3.2399    0.0000 C   0  0  0  0  0  0  0  0  0  0  0  0
    8.9893    4.8286    0.0000 H   0  0  0  0  0  0  0  0  0  0  0  0
    7.3277    2.6107    0.0000 C   0  0  0  0  0  0  0  0  0  0  0  0
    6.0472    3.5700    0.0000 H   0  0  0  0  0  0  0  0  0  0  0  0
    5.6662    0.3928    0.0000 C   0  0  0  0  0  0  0  0  0  0  0  0
    4.3856    1.3521    0.0000 O   0  0  0  0  0  0  0  0  0  0  0  0
    2.9147    0.7228    0.0000 C   0  0  0  0  0  0  0  0  0  0  0  0
    3.7215    0.3904    0.0000 H   0  0  0  0  0  0  0  0  0  0  0  0
    1.8899    1.9616    0.0000 C   0  0  0  0  0  0  0  0  0  0  0  0
    3.1726    2.9181    0.0000 H   0  0  0  0  0  0  0  0  0  0  0  0
    0.9991    3.2906    0.0000 H   0  0  0  0  0  0  0  0  0  0  0  0
    0.3451    1.0349    0.0000 C   0  0  0  0  0  0  0  0  0  0  0  0
    0.0283    2.6033    0.0000 H   0  0  0  0  0  0  0  0  0  0  0  0
   -1.0231    1.2302    0.0000 N   0  0  0  0  0  0  0  0  0  0  0  0
   -2.4200    2.0105    0.0000 C   0  0  0  0  0  0  0  0  0  0  0  0
   -3.8168    2.7906    0.0000 H   0  0  0  0  0  0  0  0  0  0  0  0
   -3.7941    1.1909    0.0000 H   0  0  0  0  0  0  0  0  0  0  0  0
   -2.4427    3.6102    0.0000 H   0  0  0  0  0  0  0  0  0  0  0  0
   -0.0000    0.0000    0.0000 C   0  0  0  0  0  0  0  0  0  0  0  0
   -1.5317   -0.4628    0.0000 H   0  0  0  0  0  0  0  0  0  0  0  0
   -0.1825   -1.7005    0.0000 C   0  0  0  0  0  0  0  0  0  0  0  0
   -1.7179   -2.1507    0.0000 H   0  0  0  0  0  0  0  0  0  0  0  0
    0.8204   -2.9472    0.0000 H   0  0  0  0  0  0  0  0  0  0  0  0
    0.4938   -0.4660    0.0000 C   0  0  0  0  0  0  0  0  0  0  0  0
    1.3593   -1.8117    0.0000 H   0  0  0  0  0  0  0  0  0  0  0  0
    1.2988   -0.6114    0.0000 H   0  0  0  0  0  0  0  0  0  0  0  0
    1.6320    0.9422    0.0000 C   0  0  0  0  0  0  0  0  0  0  0  0
    1.9533    0.1900    0.0000 H   0  0  0  0  0  0  0  0  0  0  0  0
    2.7339   -0.2178    0.0000 C   0  0  0  0  0  0  0  0  0  0  0  0
    2.2801   -1.7521    0.0000 O   0  0  0  0  0  0  0  0  0  0  0  0
    3.3822   -2.9122    0.0000 C   0  0  0  0  0  0  0  0  0  0  0  0
    4.4841   -4.0724    0.0000 H   0  0  0  0  0  0  0  0  0  0  0  0
    4.9378   -2.5380    0.0000 H   0  0  0  0  0  0  0  0  0  0  0  0
    2.9285   -4.4466    0.0000 H   0  0  0  0  0  0  0  0  0  0  0  0
    3.3752   -0.8095    0.0000 O   0  0  0  0  0  0  0  0  0  0  0  0
    5.4758   -1.1959    0.0000 O   0  0  0  0  0  0  0  0  0  0  0  0
  1  2  1  0  0  0  0
  2  3  1  0  0  0  0
  2  4  2  0  0  0  0
  4  5  1  0  0  0  0
  4  6  1  0  0  0  0
  6  7  1  0  0  0  0
  6  8  2  0  0  0  0
  8  9  1  0  0  0  0
  8 10  1  0  0  0  0
 10  1  2  0  0  0  0
 10 11  1  0  0  0  0
  1 12  1  0  0  0  0
 12 13  1  0  0  0  0
 13 14  1  0  0  0  0
 14 15  1  0  0  0  0
 14 16  1  0  0  0  0
 16 17  1  0  0  0  0
 16 18  1  0  0  0  0
 16 19  1  0  0  0  0
 19 20  1  0  0  0  0
 19 21  1  0  0  0  0
 21 22  1  0  0  0  0
 22 23  1  0  0  0  0
 22 24  1  0  0  0  0
 22 25  1  0  0  0  0
 21 26  1  0  0  0  0
 26 27  1  0  0  0  0
 26 28  1  0  0  0  0
 28 29  1  0  0  0  0
 28 30  1  0  0  0  0
 28 31  1  0  0  0  0
 31 19  1  0  0  0  0
 31 32  1  0  0  0  0
 31 33  1  0  0  0  0
 26 34  1  0  0  0  0
 34 14  1  0  0  0  0
 34 35  1  0  0  0  0
 34 36  1  0  0  0  0
 36 37  1  0  0  0  0
 37 38  1  0  0  0  0
 38 39  1  0  0  0  0
 38 40  1  0  0  0  0
 38 41  1  0  0  0  0
 36 42  2  0  0  0  0
 12 43  2  0  0  0  0
M  END
> <ChemID>
100006

> <source_casrn>
50-36-2

> <CAS>
50-36-2

> <SMILES>
COC(=O)[C@@H]1C2CCC(C[C@@H]1OC(=O)c1ccccc1)[N@@]2C

> <NAME>
COCAINE

> <preferred_name>
Cocaine

> <iupac>
methyl (1R,2R,3S,5S)-3-(benzoyloxy)-8-methyl-8-azabicyclo[3.2.1]octane-2-carboxylate

> <MPID>
24657

> <dsstox_substance_id>
DTXSID2038443

> <Canonical_QSARr>
COC(=O)C1C2CCC(CC1OC(=O)c1ccccc1)N2C

> <InChI_Code_QSARr>
InChI=1S/C17H21NO4/c1-18-12-8-9-13(18)15(17(20)21-2)14(10-12)22-16(19)11-6-4-3-5-7-11/h3-7,12-15H,8-10H2,1-2H3

> <InChI Key_QSARr>
ZPUCINDJVBIVPJ-UHFFFAOYSA-N

> <Salt_Solvent>
?

> <LogVP>
-6.719

$$$$
100010
  -INDIGO-08031723152D

 21 21  0  0  0  0  0  0  0  0999 V2000
    0.0000    2.7713    0.0000 O   0  0  0  0  0  0  0  0  0  0  0  0
    0.8000    4.1569    0.0000 H   0  0  0  0  0  0  0  0  0  0  0  0
    0.8000    1.3856    0.0000 C   0  0  0  0  0  0  0  0  0  0  0  0
    2.4000    1.3856    0.0000 O   0  0  0  0  0  0  0  0  0  0  0  0
    0.0000    0.0001    0.0000 C   0  0  0  0  0  0  0  0  0  0  0  0
    0.8000   -1.3856    0.0000 C   0  0  0  0  0  0  0  0  0  0  0  0
    2.4000   -1.3856    0.0000 O   0  0  0  0  0  0  0  0  0  0  0  0
    3.1999   -2.7712    0.0000 C   0  0  0  0  0  0  0  0  0  0  0  0
    2.4000   -4.1569    0.0000 O   0  0  0  0  0  0  0  0  0  0  0  0
    4.8000   -2.7713    0.0000 C   0  0  0  0  0  0  0  0  0  0  0  0
    6.4000   -2.7713    0.0000 H   0  0  0  0  0  0  0  0  0  0  0  0
    5.6000   -4.1569    0.0000 H   0  0  0  0  0  0  0  0  0  0  0  0
    5.6000   -1.3856    0.0000 H   0  0  0  0  0  0  0  0  0  0  0  0
    0.0000   -2.7712    0.0000 C   0  0  0  0  0  0  0  0  0  0  0  0
    0.8000   -4.1569    0.0000 H   0  0  0  0  0  0  0  0  0  0  0  0
   -1.6001   -2.7712    0.0000 C   0  0  0  0  0  0  0  0  0  0  0  0
   -2.4000   -4.1569    0.0000 H   0  0  0  0  0  0  0  0  0  0  0  0
   -2.4000   -1.3856    0.0000 C   0  0  0  0  0  0  0  0  0  0  0  0
   -4.0000   -1.3856    0.0000 H   0  0  0  0  0  0  0  0  0  0  0  0
   -1.6001    0.0001    0.0000 C   0  0  0  0  0  0  0  0  0  0  0  0
   -2.4000    1.3856    0.0000 H   0  0  0  0  0  0  0  0  0  0  0  0
  1  2  1  0  0  0  0
  1  3  1  0  0  0  0
  3  4  2  0  0  0  0
  3  5  1  0  0  0  0
  5  6  1  0  0  0  0
  6  7  1  0  0  0  0
  7  8  1  0  0  0  0
  8  9  2  0  0  0  0
  8 10  1  0  0  0  0
 10 11  1  0  0  0  0
 10 12  1  0  0  0  0
 10 13  1  0  0  0  0
  6 14  2  0  0  0  0
 14 15  1  0  0  0  0
 14 16  1  0  0  0  0
 16 17  1  0  0  0  0
 16 18  2  0  0  0  0
 18 19  1  0  0  0  0
 18 20  1  0  0  0  0
 20  5  2  0  0  0  0
 20 21  1  0  0  0  0
M  END
> <ChemID>
100010

> <source_casrn>
50-78-2

> <CAS>
50-78-2

> <SMILES>
CC(=O)Oc1ccccc1C(O)=O

> <NAME>
ACETYLSALICYLIC ACID

> <preferred_name>
Aspirin

> <iupac>
2-(acetyloxy)benzoic acid

> <MPID>
24661

> <dsstox_substance_id>
DTXSID5020108

> <Canonical_QSARr>
CC(=O)Oc1ccccc1C(O)=O

> <InChI_Code_QSARr>
InChI=1S/C9H8O4/c1-6(10)13-8-5-3-2-4-7(8)9(11)12/h2-5H,1H3,(H,11,12)

> <InChI Key_QSARr>
BSYNRYMUTXBXSQ-UHFFFAOYSA-N

> <Salt_Solvent>
?

> <LogVP>
-4.5986

$$$$
100014
  -INDIGO-08031723152D

 15 14  0  0  0  0  0  0  0  0999 V2000
   -1.3856    2.4000    0.0000 O   0  0  0  0  0  0  0  0  0  0  0  0
    0.0001    1.6000    0.0000 N   0  0  0  0  0  0  0  0  0  0  0  0
    1.3856    2.4000    0.0000 O   0  0  0  0  0  0  0  0  0  0  0  0
    0.0001    0.0000    0.0000 C   0  0  0  0  0  0  0  0  0  0  0  0
    0.0001   -1.6000    0.0000 Br  0  0  0  0  0  0  0  0  0  0  0  0
   -1.5999    0.0000    0.0000 C   0  0  0  0  0  0  0  0  0  0  0  0
   -2.8694   -0.9740    0.0000 H   0  0  0  0  0  0  0  0  0  0  0  0
   -1.8088   -1.5863    0.0000 H   0  0  0  0  0  0  0  0  0  0  0  0
   -2.4000    1.3856    0.0000 O   0  0  0  0  0  0  0  0  0  0  0  0
   -4.0000    1.3856    0.0000 H   0  0  0  0  0  0  0  0  0  0  0  0
    1.6001    0.0000    0.0000 C   0  0  0  0  0  0  0  0  0  0  0  0
    1.8088   -1.5863    0.0000 H   0  0  0  0  0  0  0  0  0  0  0  0
    2.8694   -0.9740    0.0000 H   0  0  0  0  0  0  0  0  0  0  0  0
    2.4000    1.3856    0.0000 O   0  0  0  0  0  0  0  0  0  0  0  0
    4.0000    1.3856    0.0000 H   0  0  0  0  0  0  0  0  0  0  0  0
  1  2  1  0  0  0  0
  2  3  2  0  0  0  0
  2  4  1  0  0  0  0
  4  5  1  0  0  0  0
  4  6  1  0  0  0  0
  6  7  1  0  0  0  0
  6  8  1  0  0  0  0
  6  9  1  0  0  0  0
  9 10  1  0  0  0  0
  4 11  1  0  0  0  0
 11 12  1  0  0  0  0
 11 13  1  0  0  0  0
 11 14  1  0  0  0  0
 14 15  1  0  0  0  0
M  CHG  2   1  -1   2   1
M  END
> <ChemID>
100014

> <source_casrn>
52-51-7

> <CAS>
52-51-7

> <SMILES>
[O-][N+](=O)C(Br)(CO)CO

> <NAME>
1,3-Propanediol, 2-bromo-2-nitro-

> <preferred_name>
Bronopol

> <iupac>
2-bromo-2-nitropropane-1,3-diol

> <MPID>
24665

> <dsstox_substance_id>
DTXSID8024652

> <Canonical_QSARr>
[O-][N+](=O)C(Br)(CO)CO

> <InChI_Code_QSARr>
InChI=1S/C3H6BrNO4/c4-3(1-6,2-7)5(8)9/h6-7H,1-2H2

> <InChI Key_QSARr>
LVDKZNITIUWNER-UHFFFAOYSA-N

> <Salt_Solvent>
?

> <LogVP>
-4.8996

$$$$
100018
  -INDIGO-08031723152D

 26 27  0  0  0  0  0  0  0  0999 V2000
   -0.4944    1.5217    0.0000 N   0  0  0  0  0  0  0  0  0  0  0  0
   -0.0001    0.0000    0.0000 C   0  0  0  0  0  0  0  0  0  0  0  0
    0.8001   -1.3857    0.0000 H   0  0  0  0  0  0  0  0  0  0  0  0
    1.5960    0.1116    0.0000 C   0  0  0  0  0  0  0  0  0  0  0  0
    2.5365    1.4061    0.0000 C   0  0  0  0  0  0  0  0  0  0  0  0
    1.8857    2.8677    0.0000 H   0  0  0  0  0  0  0  0  0  0  0  0
    4.1278    1.2388    0.0000 N   0  0  0  0  0  0  0  0  0  0  0  0
    4.7785   -0.2229    0.0000 C   0  0  0  0  0  0  0  0  0  0  0  0
    6.3698   -0.3901    0.0000 H   0  0  0  0  0  0  0  0  0  0  0  0
    3.8381   -1.5173    0.0000 C   0  0  0  0  0  0  0  0  0  0  0  0
    4.4889   -2.9790    0.0000 H   0  0  0  0  0  0  0  0  0  0  0  0
    2.2468   -1.3500    0.0000 C   0  0  0  0  0  0  0  0  0  0  0  0
    1.3065   -2.6445    0.0000 H   0  0  0  0  0  0  0  0  0  0  0  0
   -1.2944   -0.9404    0.0000 C   0  0  0  0  0  0  0  0  0  0  0  0
   -0.2238   -2.1295    0.0000 H   0  0  0  0  0  0  0  0  0  0  0  0
   -2.3651   -2.1295    0.0000 H   0  0  0  0  0  0  0  0  0  0  0  0
   -2.5888    0.0000    0.0000 C   0  0  0  0  0  0  0  0  0  0  0  0
   -3.3889   -1.3857    0.0000 H   0  0  0  0  0  0  0  0  0  0  0  0
   -4.0505    0.6508    0.0000 H   0  0  0  0  0  0  0  0  0  0  0  0
   -2.0945    1.5217    0.0000 C   0  0  0  0  0  0  0  0  0  0  0  0
   -3.6595    1.8543    0.0000 H   0  0  0  0  0  0  0  0  0  0  0  0
   -2.2061    3.1178    0.0000 H   0  0  0  0  0  0  0  0  0  0  0  0
    0.4460    2.8161    0.0000 C   0  0  0  0  0  0  0  0  0  0  0  0
   -0.2047    4.2778    0.0000 H   0  0  0  0  0  0  0  0  0  0  0  0
    1.3865    4.1106    0.0000 H   0  0  0  0  0  0  0  0  0  0  0  0
   -1.1452    2.9833    0.0000 H   0  0  0  0  0  0  0  0  0  0  0  0
  1  2  1  0  0  0  0
  2  3  1  0  0  0  0
  2  4  1  0  0  0  0
  4  5  1  0  0  0  0
  5  6  1  0  0  0  0
  5  7  2  0  0  0  0
  7  8  1  0  0  0  0
  8  9  1  0  0  0  0
  8 10  2  0  0  0  0
 10 11  1  0  0  0  0
 10 12  1  0  0  0  0
 12  4  2  0  0  0  0
 12 13  1  0  0  0  0
  2 14  1  0  0  0  0
 14 15  1  0  0  0  0
 14 16  1  0  0  0  0
 14 17  1  0  0  0  0
 17 18  1  0  0  0  0
 17 19  1  0  0  0  0
 17 20  1  0  0  0  0
 20  1  1  0  0  0  0
 20 21  1  0  0  0  0
 20 22  1  0  0  0  0
  1 23  1  0  0  0  0
 23 24  1  0  0  0  0
 23 25  1  0  0  0  0
 23 26  1  0  0  0  0
M  END
> <ChemID>
100018

> <source_casrn>
54-11-5

> <CAS>
54-11-5

> <SMILES>
CN1CCC[C@H]1c1c[n]ccc1

> <NAME>
NICOTINE

> <preferred_name>
Nicotine

> <iupac>
C10H14N2

> <MPID>
24669

> <dsstox_substance_id>
DTXSID1020930

> <Canonical_QSARr>
CN1CCCC1c1c[n]ccc1

> <InChI_Code_QSARr>
InChI=1S/C10H14N2/c1-12-7-3-5-10(12)9-4-2-6-11-8-9/h2,4,6,8,10H,3,5,7H2,1H3

> <InChI Key_QSARr>
SNICXCGAKADSCV-UHFFFAOYSA-N

> <Salt_Solvent>
?

> <LogVP>
-1.4202

$$$$
100022
  -INDIGO-08031723152D

 25 24  0  0  0  0  0  0  0  0999 V2000
    2.3035    1.9329    0.0000 P   0  0  0  0  0  0  0  0  0  0  0  0
    3.1632    3.2823    0.0000 O   0  0  0  0  0  0  0  0  0  0  0  0
    3.5292    0.9044    0.0000 O   0  0  0  0  0  0  0  0  0  0  0  0
    5.0327    1.4517    0.0000 C   0  0  0  0  0  0  0  0  0  0  0  0
    4.4855    2.9552    0.0000 H   0  0  0  0  0  0  0  0  0  0  0  0
    6.5362    1.9989    0.0000 C   0  0  0  0  0  0  0  0  0  0  0  0
    8.0397    2.5461    0.0000 H   0  0  0  0  0  0  0  0  0  0  0  0
    7.7619    0.9704    0.0000 H   0  0  0  0  0  0  0  0  0  0  0  0
    6.8140    3.5746    0.0000 H   0  0  0  0  0  0  0  0  0  0  0  0
    5.5799   -0.0518    0.0000 C   0  0  0  0  0  0  0  0  0  0  0  0
    6.1271   -1.5553    0.0000 H   0  0  0  0  0  0  0  0  0  0  0  0
    4.5515   -1.2776    0.0000 H   0  0  0  0  0  0  0  0  0  0  0  0
    7.1557   -0.3297    0.0000 H   0  0  0  0  0  0  0  0  0  0  0  0
    0.8000    1.3857    0.0000 O   0  0  0  0  0  0  0  0  0  0  0  0
   -0.0000    0.0000    0.0000 C   0  0  0  0  0  0  0  0  0  0  0  0
   -0.7999   -1.3856    0.0000 H   0  0  0  0  0  0  0  0  0  0  0  0
   -1.3856    0.8000    0.0000 C   0  0  0  0  0  0  0  0  0  0  0  0
   -2.7713    1.6000    0.0000 H   0  0  0  0  0  0  0  0  0  0  0  0
   -2.7713    0.0000    0.0000 H   0  0  0  0  0  0  0  0  0  0  0  0
   -1.3856    2.4000    0.0000 H   0  0  0  0  0  0  0  0  0  0  0  0
    1.3857   -0.8000    0.0000 C   0  0  0  0  0  0  0  0  0  0  0  0
    2.7712   -1.6000    0.0000 H   0  0  0  0  0  0  0  0  0  0  0  0
    1.3857   -2.4000    0.0000 H   0  0  0  0  0  0  0  0  0  0  0  0
    2.7712    0.0000    0.0000 H   0  0  0  0  0  0  0  0  0  0  0  0
    1.9573    3.4950    0.0000 F   0  0  0  0  0  0  0  0  0  0  0  0
  1  2  2  0  0  0  0
  1  3  1  0  0  0  0
  3  4  1  0  0  0  0
  4  5  1  0  0  0  0
  4  6  1  0  0  0  0
  6  7  1  0  0  0  0
  6  8  1  0  0  0  0
  6  9  1  0  0  0  0
  4 10  1  0  0  0  0
 10 11  1  0  0  0  0
 10 12  1  0  0  0  0
 10 13  1  0  0  0  0
  1 14  1  0  0  0  0
 14 15  1  0  0  0  0
 15 16  1  0  0  0  0
 15 17  1  0  0  0  0
 17 18  1  0  0  0  0
 17 19  1  0  0  0  0
 17 20  1  0  0  0  0
 15 21  1  0  0  0  0
 21 22  1  0  0  0  0
 21 23  1  0  0  0  0
 21 24  1  0  0  0  0
  1 25  1  0  0  0  0
M  END
> <ChemID>
100022

> <source_casrn>
55-91-4

> <CAS>
55-91-4

> <SMILES>
CC(C)OP(=O)(F)OC(C)C

> <NAME>
ISOFLUROPHATE

> <preferred_name>
Diisopropyl fluorophosphate

> <iupac>
dipropan-2-yl phosphorofluoridate

> <MPID>
24673

> <dsstox_substance_id>
DTXSID1040667

> <Canonical_QSARr>
CC(C)OP(=O)(F)OC(C)C

> <InChI_Code_QSARr>
InChI=1S/C6H14FO3P/c1-5(2)9-11(7,8)10-6(3)4/h5-6H,1-4H3

> <InChI Key_QSARr>
MUCZHBLJLSDCSD-UHFFFAOYSA-N

> <Salt_Solvent>
?

> <LogVP>
-0.2373

$$$$
100028
  -INDIGO-08031723152D

 30 33  0  0  0  0  0  0  0  0999 V2000
    0.0000   -0.0001    0.0000 C   0  0  0  0  0  0  0  0  0  0  0  0
   -0.8000    1.3856    0.0000 C   0  0  0  0  0  0  0  0  0  0  0  0
    0.0000    2.7713    0.0000 H   0  0  0  0  0  0  0  0  0  0  0  0
   -2.4000    1.3856    0.0000 C   0  0  0  0  0  0  0  0  0  0  0  0
   -3.2000   -0.0001    0.0000 C   0  0  0  0  0  0  0  0  0  0  0  0
   -4.8000    0.0001    0.0000 C   0  0  0  0  0  0  0  0  0  0  0  0
   -5.6000   -1.3856    0.0000 H   0  0  0  0  0  0  0  0  0  0  0  0
   -5.6000    1.3856    0.0000 C   0  0  0  0  0  0  0  0  0  0  0  0
   -7.2000    1.3856    0.0000 H   0  0  0  0  0  0  0  0  0  0  0  0
   -4.8000    2.7712    0.0000 C   0  0  0  0  0  0  0  0  0  0  0  0
   -5.6000    4.1569    0.0000 H   0  0  0  0  0  0  0  0  0  0  0  0
   -3.2000    2.7712    0.0000 C   0  0  0  0  0  0  0  0  0  0  0  0
   -2.4000    4.1569    0.0000 H   0  0  0  0  0  0  0  0  0  0  0  0
   -2.4000   -1.3856    0.0000 C   0  0  0  0  0  0  0  0  0  0  0  0
   -3.2000   -2.7712    0.0000 H   0  0  0  0  0  0  0  0  0  0  0  0
   -0.8000   -1.3856    0.0000 C   0  0  0  0  0  0  0  0  0  0  0  0
    0.0000   -2.7712    0.0000 C   0  0  0  0  0  0  0  0  0  0  0  0
   -0.8000   -4.1569    0.0000 H   0  0  0  0  0  0  0  0  0  0  0  0
    1.6000   -2.7712    0.0000 C   0  0  0  0  0  0  0  0  0  0  0  0
    2.4000   -4.1569    0.0000 H   0  0  0  0  0  0  0  0  0  0  0  0
    2.4000   -1.3856    0.0000 C   0  0  0  0  0  0  0  0  0  0  0  0
    1.6000   -0.0001    0.0000 C   0  0  0  0  0  0  0  0  0  0  0  0
    2.4000    1.3856    0.0000 C   0  0  0  0  0  0  0  0  0  0  0  0
    1.6000    2.7712    0.0000 H   0  0  0  0  0  0  0  0  0  0  0  0
    4.0000    1.3856    0.0000 C   0  0  0  0  0  0  0  0  0  0  0  0
    4.8000    2.7712    0.0000 H   0  0  0  0  0  0  0  0  0  0  0  0
    4.8000   -0.0001    0.0000 C   0  0  0  0  0  0  0  0  0  0  0  0
    6.4000   -0.0001    0.0000 H   0  0  0  0  0  0  0  0  0  0  0  0
    4.0000   -1.3856    0.0000 C   0  0  0  0  0  0  0  0  0  0  0  0
    4.8000   -2.7713    0.0000 H   0  0  0  0  0  0  0  0  0  0  0  0
  1  2  1  0  0  0  0
  2  3  1  0  0  0  0
  2  4  2  0  0  0  0
  4  5  1  0  0  0  0
  5  6  1  0  0  0  0
  6  7  1  0  0  0  0
  6  8  2  0  0  0  0
  8  9  1  0  0  0  0
  8 10  1  0  0  0  0
 10 11  1  0  0  0  0
 10 12  2  0  0  0  0
 12  4  1  0  0  0  0
 12 13  1  0  0  0  0
  5 14  2  0  0  0  0
 14 15  1  0  0  0  0
 14 16  1  0  0  0  0
 16  1  1  0  0  0  0
 16 17  2  0  0  0  0
 17 18  1  0  0  0  0
 17 19  1  0  0  0  0
 19 20  1  0  0  0  0
 19 21  2  0  0  0  0
 21 22  1  0  0  0  0
 22  1  2  0  0  0  0
 22 23  1  0  0  0  0
 23 24  1  0  0  0  0
 23 25  2  0  0  0  0
 25 26  1  0  0  0  0
 25 27  1  0  0  0  0
 27 28  1  0  0  0  0
 27 29  2  0  0  0  0
 29 21  1  0  0  0  0
 29 30  1  0  0  0  0
M  END
> <ChemID>
100028

> <source_casrn>
56-55-3

> <CAS>
56-55-3

> <SMILES>
c1c2c3ccccc3ccc2cc2ccccc21

> <NAME>
BENZ(A)ANTHRACENE

> <preferred_name>
Benz(a)anthracene

> <iupac>
tetraphene

> <MPID>
24677

> <dsstox_substance_id>
DTXSID5023902

> <Canonical_QSARr>
c1c2c3ccccc3ccc2cc2ccccc21

> <InChI_Code_QSARr>
InChI=1S/C18H12/c1-2-7-15-12-18-16(11-14(15)6-1)10-9-13-5-3-4-8-17(13)18/h1-12H

> <InChI Key_QSARr>
DXBHBZVCASKNBY-UHFFFAOYSA-N

> <Salt_Solvent>
?

> <LogVP>
-6.6778

$$$$
100032
  -INDIGO-08031723152D

 24 23  0  0  0  0  0  0  0  0999 V2000
   -2.7713    1.6000    0.0000 C   0  0  0  0  0  0  0  0  0  0  0  0
   -2.7713    3.2000    0.0000 O   0  0  0  0  0  0  0  0  0  0  0  0
   -1.3856    0.8000    0.0000 C   0  0  0  0  0  0  0  0  0  0  0  0
   -0.5857    2.1857    0.0000 H   0  0  0  0  0  0  0  0  0  0  0  0
   -2.1856   -0.5857    0.0000 N   0  0  0  0  0  0  0  0  0  0  0  0
   -1.6383   -2.0891    0.0000 H   0  0  0  0  0  0  0  0  0  0  0  0
   -3.7856   -0.5857    0.0000 H   0  0  0  0  0  0  0  0  0  0  0  0
    0.0001    0.0000    0.0000 C   0  0  0  0  0  0  0  0  0  0  0  0
    0.6122   -1.4782    0.0000 H   0  0  0  0  0  0  0  0  0  0  0  0
   -0.6123   -1.4782    0.0000 H   0  0  0  0  0  0  0  0  0  0  0  0
    1.3856    0.8000    0.0000 C   0  0  0  0  0  0  0  0  0  0  0  0
    0.7734    2.2782    0.0000 H   0  0  0  0  0  0  0  0  0  0  0  0
    1.9979    2.2782    0.0000 H   0  0  0  0  0  0  0  0  0  0  0  0
    2.7713    0.0000    0.0000 C   0  0  0  0  0  0  0  0  0  0  0  0
    3.3836   -1.4782    0.0000 H   0  0  0  0  0  0  0  0  0  0  0  0
    2.1589   -1.4782    0.0000 H   0  0  0  0  0  0  0  0  0  0  0  0
    4.1570    0.8000    0.0000 C   0  0  0  0  0  0  0  0  0  0  0  0
    3.5446    2.2782    0.0000 H   0  0  0  0  0  0  0  0  0  0  0  0
    4.7692    2.2782    0.0000 H   0  0  0  0  0  0  0  0  0  0  0  0
    5.5425    0.0000    0.0000 N   0  0  0  0  0  0  0  0  0  0  0  0
    6.9282    0.8000    0.0000 H   0  0  0  0  0  0  0  0  0  0  0  0
    5.5425   -1.6000    0.0000 H   0  0  0  0  0  0  0  0  0  0  0  0
   -4.1569    0.8000    0.0000 O   0  0  0  0  0  0  0  0  0  0  0  0
   -5.5426    1.6000    0.0000 H   0  0  0  0  0  0  0  0  0  0  0  0
  1  2  2  0  0  0  0
  1  3  1  0  0  0  0
  3  4  1  0  0  0  0
  3  5  1  0  0  0  0
  5  6  1  0  0  0  0
  5  7  1  0  0  0  0
  3  8  1  0  0  0  0
  8  9  1  0  0  0  0
  8 10  1  0  0  0  0
  8 11  1  0  0  0  0
 11 12  1  0  0  0  0
 11 13  1  0  0  0  0
 11 14  1  0  0  0  0
 14 15  1  0  0  0  0
 14 16  1  0  0  0  0
 14 17  1  0  0  0  0
 17 18  1  0  0  0  0
 17 19  1  0  0  0  0
 17 20  1  0  0  0  0
 20 21  1  0  0  0  0
 20 22  1  0  0  0  0
  1 23  1  0  0  0  0
 23 24  1  0  0  0  0
M  END
> <ChemID>
100032

> <source_casrn>
56-87-1

> <CAS>
56-87-1

> <SMILES>
NCCCC[C@H](N)C(O)=O

> <NAME>
LYSINE

> <preferred_name>
Lysine

> <iupac>
L-lysine

> <MPID>
24681

> <dsstox_substance_id>
DTXSID6023232

> <Canonical_QSARr>
NCCCCC(N)C(O)=O

> <InChI_Code_QSARr>
InChI=1S/C6H14N2O2/c7-4-2-1-3-5(8)6(9)10/h5H,1-4,7-8H2,(H,9,10)

> <InChI Key_QSARr>
KDXKERNSBIXSRK-UHFFFAOYSA-N

> <Salt_Solvent>
?

> <LogVP>
-8.277

$$$$
100036
  -INDIGO-08031723152D

  8  7  0  0  0  0  0  0  0  0999 V2000
    0.0000    0.0000    0.0000 C   0  0  0  0  0  0  0  0  0  0  0  0
    1.3856    0.8000    0.0000 N   0  0  0  0  0  0  0  0  0  0  0  0
    2.7713    0.0000    0.0000 H   0  0  0  0  0  0  0  0  0  0  0  0
    1.3856    2.4000    0.0000 H   0  0  0  0  0  0  0  0  0  0  0  0
   -1.3856    0.8000    0.0000 N   0  0  0  0  0  0  0  0  0  0  0  0
   -2.7713    0.0000    0.0000 H   0  0  0  0  0  0  0  0  0  0  0  0
   -1.3856    2.4000    0.0000 H   0  0  0  0  0  0  0  0  0  0  0  0
   -0.0000   -1.6000    0.0000 O   0  0  0  0  0  0  0  0  0  0  0  0
  1  2  1  0  0  0  0
  2  3  1  0  0  0  0
  2  4  1  0  0  0  0
  1  5  1  0  0  0  0
  5  6  1  0  0  0  0
  5  7  1  0  0  0  0
  1  8  2  0  0  0  0
M  END
> <ChemID>
100036

> <source_casrn>
57-13-6

> <CAS>
57-13-6

> <SMILES>
NC(N)=O

> <NAME>
UREA

> <preferred_name>
Urea

> <iupac>
urea

> <MPID>
24685

> <dsstox_substance_id>
DTXSID4021426

> <Canonical_QSARr>
NC(N)=O

> <InChI_Code_QSARr>
InChI=1S/CH4N2O/c2-1(3)4/h(H4,2,3,4)

> <InChI Key_QSARr>
XSQUKJJJFZCRTK-UHFFFAOYSA-N

> <Salt_Solvent>
?

> <LogVP>
-4.9208

$$$$
100040
  -INDIGO-08031723152D

 20 19  0  0  0  0  0  0  0  0999 V2000
    3.2000    0.0000    0.0000 C   0  0  0  0  0  0  0  0  0  0  0  0
    4.0000   -1.3856    0.0000 H   0  0  0  0  0  0  0  0  0  0  0  0
    1.6000    0.0000    0.0000 C   0  0  0  0  0  0  0  0  0  0  0  0
    1.6000    1.6000    0.0000 H   0  0  0  0  0  0  0  0  0  0  0  0
    0.0000    0.0000    0.0000 C   0  0  0  0  0  0  0  0  0  0  0  0
    0.0000   -1.6000    0.0000 H   0  0  0  0  0  0  0  0  0  0  0  0
   -1.6000    0.0000    0.0000 C   0  0  0  0  0  0  0  0  0  0  0  0
   -1.6000    1.6000    0.0000 H   0  0  0  0  0  0  0  0  0  0  0  0
   -3.2000    0.0000    0.0000 C   0  0  0  0  0  0  0  0  0  0  0  0
   -4.4694    0.9740    0.0000 H   0  0  0  0  0  0  0  0  0  0  0  0
   -3.4089    1.5863    0.0000 H   0  0  0  0  0  0  0  0  0  0  0  0
   -4.0001   -1.3856    0.0000 O   0  0  0  0  0  0  0  0  0  0  0  0
   -5.6000   -1.3856    0.0000 H   0  0  0  0  0  0  0  0  0  0  0  0
   -1.6000   -1.6000    0.0000 O   0  0  0  0  0  0  0  0  0  0  0  0
   -2.9857   -2.4000    0.0000 H   0  0  0  0  0  0  0  0  0  0  0  0
    0.0000    1.6000    0.0000 O   0  0  0  0  0  0  0  0  0  0  0  0
    1.2257    2.6285    0.0000 H   0  0  0  0  0  0  0  0  0  0  0  0
    1.6000   -1.6000    0.0000 O   0  0  0  0  0  0  0  0  0  0  0  0
    2.9856   -2.4000    0.0000 H   0  0  0  0  0  0  0  0  0  0  0  0
    4.0000    1.3857    0.0000 O   0  0  0  0  0  0  0  0  0  0  0  0
  1  2  1  0  0  0  0
  1  3  1  0  0  0  0
  3  4  1  0  0  0  0
  3  5  1  0  0  0  0
  5  6  1  0  0  0  0
  5  7  1  0  0  0  0
  7  8  1  0  0  0  0
  7  9  1  0  0  0  0
  9 10  1  0  0  0  0
  9 11  1  0  0  0  0
  9 12  1  0  0  0  0
 12 13  1  0  0  0  0
  7 14  1  0  0  0  0
 14 15  1  0  0  0  0
  5 16  1  0  0  0  0
 16 17  1  0  0  0  0
  3 18  1  0  0  0  0
 18 19  1  0  0  0  0
  1 20  2  0  0  0  0
M  END
> <ChemID>
100040

> <source_casrn>
58-86-6

> <CAS>
50-69-1

> <SMILES>
OC[C@@H](O)[C@@H](O)[C@@H](O)C=O

> <NAME>
D-Xylose

> <preferred_name>
D-Ribose

> <iupac>
D-ribose

> <MPID>
24689

> <dsstox_substance_id>
DTXSID6043917

> <Canonical_QSARr>
OCC(O)C(O)C(O)C=O

> <InChI_Code_QSARr>
InChI=1S/C5H10O5/c6-1-3(8)5(10)4(9)2-7/h1,3-5,7-10H,2H2

> <InChI Key_QSARr>
PYMYPHUHKUWMLA-UHFFFAOYSA-N

> <Salt_Solvent>
?

> <LogVP>
-9.7055

$$$$
100044
  -INDIGO-08031723152D

 14 13  0  0  0  0  0  0  0  0999 V2000
    0.0001    1.6000    0.0000 S   0  0  0  0  0  0  0  0  0  0  0  0
    1.3856    2.4000    0.0000 H   0  0  0  0  0  0  0  0  0  0  0  0
    0.0001    0.0000    0.0000 C   0  0  0  0  0  0  0  0  0  0  0  0
    0.0001   -1.6000    0.0000 H   0  0  0  0  0  0  0  0  0  0  0  0
   -1.5999    0.0000    0.0000 C   0  0  0  0  0  0  0  0  0  0  0  0
   -1.8088   -1.5863    0.0000 H   0  0  0  0  0  0  0  0  0  0  0  0
   -2.8694   -0.9740    0.0000 H   0  0  0  0  0  0  0  0  0  0  0  0
   -2.4000    1.3856    0.0000 S   0  0  0  0  0  0  0  0  0  0  0  0
   -4.0000    1.3856    0.0000 H   0  0  0  0  0  0  0  0  0  0  0  0
    1.6001    0.0000    0.0000 C   0  0  0  0  0  0  0  0  0  0  0  0
    1.8088   -1.5863    0.0000 H   0  0  0  0  0  0  0  0  0  0  0  0
    2.8694   -0.9740    0.0000 H   0  0  0  0  0  0  0  0  0  0  0  0
    2.4000    1.3856    0.0000 O   0  0  0  0  0  0  0  0  0  0  0  0
    4.0000    1.3856    0.0000 H   0  0  0  0  0  0  0  0  0  0  0  0
  1  2  1  0  0  0  0
  1  3  1  0  0  0  0
  3  4  1  0  0  0  0
  3  5  1  0  0  0  0
  5  6  1  0  0  0  0
  5  7  1  0  0  0  0
  5  8  1  0  0  0  0
  8  9  1  0  0  0  0
  3 10  1  0  0  0  0
 10 11  1  0  0  0  0
 10 12  1  0  0  0  0
 10 13  1  0  0  0  0
 13 14  1  0  0  0  0
M  END
> <ChemID>
100044

> <source_casrn>
59-52-9

> <CAS>
59-52-9

> <SMILES>
OCC(S)CS

> <NAME>
1-Propanol, 2,3-dimercapto-

> <preferred_name>
Dimercaprol

> <iupac>
2,3-disulfanylpropan-1-ol

> <MPID>
24693

> <dsstox_substance_id>
DTXSID5040461

> <Canonical_QSARr>
OCC(S)CS

> <InChI_Code_QSARr>
InChI=1S/C3H8OS2/c4-1-3(6)2-5/h3-6H,1-2H2

> <InChI Key_QSARr>
WQABCVAJNWAXTE-UHFFFAOYSA-N

> <Salt_Solvent>
?

> <LogVP>
-2.301

$$$$
100048
  -INDIGO-08031723152D

 19 19  0  0  0  0  0  0  0  0999 V2000
   -1.3857   -0.8000    0.0000 C   0  0  0  0  0  0  0  0  0  0  0  0
   -1.3857   -2.4000    0.0000 C   0  0  0  0  0  0  0  0  0  0  0  0
    0.0001   -3.2000    0.0000 H   0  0  0  0  0  0  0  0  0  0  0  0
   -2.7713   -3.2000    0.0000 C   0  0  0  0  0  0  0  0  0  0  0  0
   -2.7713   -4.8000    0.0000 H   0  0  0  0  0  0  0  0  0  0  0  0
   -4.1569   -2.4000    0.0000 C   0  0  0  0  0  0  0  0  0  0  0  0
   -5.5426   -3.2000    0.0000 H   0  0  0  0  0  0  0  0  0  0  0  0
   -4.1569   -0.8000    0.0000 C   0  0  0  0  0  0  0  0  0  0  0  0
   -5.5426   -0.0000    0.0000 H   0  0  0  0  0  0  0  0  0  0  0  0
   -2.7713   -0.0000    0.0000 C   0  0  0  0  0  0  0  0  0  0  0  0
   -2.7713    1.6000    0.0000 H   0  0  0  0  0  0  0  0  0  0  0  0
    0.0001   -0.0000    0.0000 C   0  0  0  0  0  0  0  0  0  0  0  0
    0.6124    1.4782    0.0000 H   0  0  0  0  0  0  0  0  0  0  0  0
   -0.6122    1.4782    0.0000 H   0  0  0  0  0  0  0  0  0  0  0  0
    1.3857   -0.8000    0.0000 C   0  0  0  0  0  0  0  0  0  0  0  0
    0.7734   -2.2782    0.0000 H   0  0  0  0  0  0  0  0  0  0  0  0
    1.9980   -2.2782    0.0000 H   0  0  0  0  0  0  0  0  0  0  0  0
    2.7713   -0.0000    0.0000 O   0  0  0  0  0  0  0  0  0  0  0  0
    4.1569   -0.8000    0.0000 H   0  0  0  0  0  0  0  0  0  0  0  0
  1  2  1  0  0  0  0
  2  3  1  0  0  0  0
  2  4  2  0  0  0  0
  4  5  1  0  0  0  0
  4  6  1  0  0  0  0
  6  7  1  0  0  0  0
  6  8  2  0  0  0  0
  8  9  1  0  0  0  0
  8 10  1  0  0  0  0
 10  1  2  0  0  0  0
 10 11  1  0  0  0  0
  1 12  1  0  0  0  0
 12 13  1  0  0  0  0
 12 14  1  0  0  0  0
 12 15  1  0  0  0  0
 15 16  1  0  0  0  0
 15 17  1  0  0  0  0
 15 18  1  0  0  0  0
 18 19  1  0  0  0  0
M  END
> <ChemID>
100048

> <source_casrn>
60-12-8

> <CAS>
60-12-8

> <SMILES>
OCCc1ccccc1

> <NAME>
2-PHENYLETHANOL

> <preferred_name>
2-Phenylethanol

> <iupac>
2-phenylethanol

> <MPID>
24697

> <dsstox_substance_id>
DTXSID9026342

> <Canonical_QSARr>
OCCc1ccccc1

> <InChI_Code_QSARr>
InChI=1S/C8H10O/c9-7-6-8-4-2-1-3-5-8/h1-5,9H,6-7H2

> <InChI Key_QSARr>
WRMNZCZEMHIOCP-UHFFFAOYSA-N

> <Salt_Solvent>
?

> <LogVP>
-1.0615

$$$$
100052
  -INDIGO-08031723152D

  9  8  0  0  0  0  0  0  0  0999 V2000
   -0.0000    0.0000    0.0000 C   0  0  0  0  0  0  0  0  0  0  0  0
    1.3856    0.8000    0.0000 H   0  0  0  0  0  0  0  0  0  0  0  0
   -0.0000    1.6000    0.0000 H   0  0  0  0  0  0  0  0  0  0  0  0
    1.3856   -0.8000    0.0000 H   0  0  0  0  0  0  0  0  0  0  0  0
   -1.3856   -0.8000    0.0000 N   0  0  0  0  0  0  0  0  0  0  0  0
   -1.3856   -2.4000    0.0000 H   0  0  0  0  0  0  0  0  0  0  0  0
   -2.7713    0.0000    0.0000 N   0  0  0  0  0  0  0  0  0  0  0  0
   -4.1569   -0.8000    0.0000 H   0  0  0  0  0  0  0  0  0  0  0  0
   -2.7713    1.6000    0.0000 H   0  0  0  0  0  0  0  0  0  0  0  0
  1  2  1  0  0  0  0
  1  3  1  0  0  0  0
  1  4  1  0  0  0  0
  1  5  1  0  0  0  0
  5  6  1  0  0  0  0
  5  7  1  0  0  0  0
  7  8  1  0  0  0  0
  7  9  1  0  0  0  0
M  END
> <ChemID>
100052

> <source_casrn>
60-34-4

> <CAS>
60-34-4

> <SMILES>
CNN

> <NAME>
METHYL HYDRAZINE

> <preferred_name>
Methylhydrazine

> <iupac>
methylhydrazine

> <MPID>
24701

> <dsstox_substance_id>
DTXSID4020874

> <Canonical_QSARr>
CNN

> <InChI_Code_QSARr>
InChI=1S/CH6N2/c1-3-2/h3H,2H2,1H3

> <InChI Key_QSARr>
HDZGCSFEDULWCS-UHFFFAOYSA-N

> <Salt_Solvent>
?

> <LogVP>
1.699

$$$$
100056
  -INDIGO-08031723152D

 10 10  0  0  0  0  0  0  0  0999 V2000
    0.0000    0.0000    0.0000 C   0  0  0  0  0  0  0  0  0  0  0  0
    1.0706    1.1890    0.0000 N   0  0  0  0  0  0  0  0  0  0  0  0
    2.5322    0.5382    0.0000 C   0  0  0  0  0  0  0  0  0  0  0  0
    3.9179    1.3383    0.0000 H   0  0  0  0  0  0  0  0  0  0  0  0
    2.3650   -1.0530    0.0000 N   0  0  0  0  0  0  0  0  0  0  0  0
    3.5541   -2.1236    0.0000 H   0  0  0  0  0  0  0  0  0  0  0  0
    0.8000   -1.3856    0.0000 N   0  0  0  0  0  0  0  0  0  0  0  0
   -1.5912    0.1673    0.0000 N   0  0  0  0  0  0  0  0  0  0  0  0
   -2.5317   -1.1272    0.0000 H   0  0  0  0  0  0  0  0  0  0  0  0
   -2.2421    1.6289    0.0000 H   0  0  0  0  0  0  0  0  0  0  0  0
  1  2  1  0  0  0  0
  2  3  2  0  0  0  0
  3  4  1  0  0  0  0
  3  5  1  0  0  0  0
  5  6  1  0  0  0  0
  5  7  1  0  0  0  0
  7  1  2  0  0  0  0
  1  8  1  0  0  0  0
  8  9  1  0  0  0  0
  8 10  1  0  0  0  0
M  END
> <ChemID>
100056

> <source_casrn>
61-82-5

> <CAS>
61-82-5

> <SMILES>
Nc1[n]c[nH][n]1

> <NAME>
AMITROLE

> <preferred_name>
Amitrole

> <iupac>
1H-1,2,4-triazol-3-amine

> <MPID>
24705

> <dsstox_substance_id>
DTXSID0020076

> <Canonical_QSARr>
Nc1[n]c[nH][n]1

> <InChI_Code_QSARr>
InChI=1S/C2H4N4/c3-2-4-1-5-6-2/h1H,(H3,3,4,5,6)

> <InChI Key_QSARr>
KLSJWNVTNUYHDU-UHFFFAOYSA-N

> <Salt_Solvent>
?

> <LogVP>
-6.3565

$$$$
100061
  -INDIGO-08031723152D

  8  7  0  0  0  0  0  0  0  0999 V2000
    1.3856    0.8000    0.0000 N   0  0  0  0  0  0  0  0  0  0  0  0
    2.7713    0.0000    0.0000 H   0  0  0  0  0  0  0  0  0  0  0  0
    1.3856    2.4000    0.0000 H   0  0  0  0  0  0  0  0  0  0  0  0
    0.0000    0.0000    0.0000 C   0  0  0  0  0  0  0  0  0  0  0  0
    0.0000   -1.6000    0.0000 S   0  0  0  0  0  0  0  0  0  0  0  0
   -1.3856    0.8000    0.0000 N   0  0  0  0  0  0  0  0  0  0  0  0
   -2.7713    0.0000    0.0000 H   0  0  0  0  0  0  0  0  0  0  0  0
   -1.3856    2.4000    0.0000 H   0  0  0  0  0  0  0  0  0  0  0  0
  1  2  1  0  0  0  0
  1  3  1  0  0  0  0
  1  4  1  0  0  0  0
  4  5  2  0  0  0  0
  4  6  1  0  0  0  0
  6  7  1  0  0  0  0
  6  8  1  0  0  0  0
M  END
> <ChemID>
100061

> <source_casrn>
62-56-6

> <CAS>
62-56-6

> <SMILES>
NC(N)=S

> <NAME>
THIOUREA

> <preferred_name>
Thiourea

> <iupac>
thiourea

> <MPID>
24709

> <dsstox_substance_id>
DTXSID9021348

> <Canonical_QSARr>
NC(N)=S

> <InChI_Code_QSARr>
InChI=1S/CH4N2S/c2-1(3)4/h(H4,2,3,4)

> <InChI Key_QSARr>
UMGDCJDMYOKAJW-UHFFFAOYSA-N

> <Salt_Solvent>
?

> <LogVP>
-2.5528

$$$$
100065
  -INDIGO-08031723152D

 24 24  0  0  0  0  0  0  0  0999 V2000
   -0.0000    1.6000    0.0000 C   0  0  0  0  0  0  0  0  0  0  0  0
    0.5472    3.1035    0.0000 H   0  0  0  0  0  0  0  0  0  0  0  0
    1.5757    1.3222    0.0000 H   0  0  0  0  0  0  0  0  0  0  0  0
   -1.3857    2.4000    0.0000 C   0  0  0  0  0  0  0  0  0  0  0  0
   -0.3571    3.6257    0.0000 H   0  0  0  0  0  0  0  0  0  0  0  0
   -2.4141    3.6257    0.0000 H   0  0  0  0  0  0  0  0  0  0  0  0
   -2.7714    1.6000    0.0000 C   0  0  0  0  0  0  0  0  0  0  0  0
   -4.1569    2.4000    0.0000 H   0  0  0  0  0  0  0  0  0  0  0  0
   -2.7712   -0.0000    0.0000 C   0  0  0  0  0  0  0  0  0  0  0  0
   -4.1569   -0.8000    0.0000 C   0  0  0  0  0  0  0  0  0  0  0  0
   -4.1569   -2.4000    0.0000 O   0  0  0  0  0  0  0  0  0  0  0  0
   -5.5425   -0.0000    0.0000 O   0  0  0  0  0  0  0  0  0  0  0  0
   -6.9282   -0.8000    0.0000 C   0  0  0  0  0  0  0  0  0  0  0  0
   -8.3138   -1.6000    0.0000 H   0  0  0  0  0  0  0  0  0  0  0  0
   -8.3138   -0.0000    0.0000 H   0  0  0  0  0  0  0  0  0  0  0  0
   -6.9282   -2.4000    0.0000 H   0  0  0  0  0  0  0  0  0  0  0  0
   -1.3857   -0.8000    0.0000 C   0  0  0  0  0  0  0  0  0  0  0  0
   -2.4141   -2.0257    0.0000 H   0  0  0  0  0  0  0  0  0  0  0  0
   -0.3571   -2.0257    0.0000 H   0  0  0  0  0  0  0  0  0  0  0  0
   -0.0000   -0.0000    0.0000 N   0  0  0  0  0  0  0  0  0  0  0  0
    1.3856   -0.8000    0.0000 C   0  0  0  0  0  0  0  0  0  0  0  0
    2.7713   -1.6000    0.0000 H   0  0  0  0  0  0  0  0  0  0  0  0
    1.3856   -2.4000    0.0000 H   0  0  0  0  0  0  0  0  0  0  0  0
    2.7713   -0.0000    0.0000 H   0  0  0  0  0  0  0  0  0  0  0  0
  1  2  1  0  0  0  0
  1  3  1  0  0  0  0
  1  4  1  0  0  0  0
  4  5  1  0  0  0  0
  4  6  1  0  0  0  0
  4  7  1  0  0  0  0
  7  8  1  0  0  0  0
  7  9  2  0  0  0  0
  9 10  1  0  0  0  0
 10 11  2  0  0  0  0
 10 12  1  0  0  0  0
 12 13  1  0  0  0  0
 13 14  1  0  0  0  0
 13 15  1  0  0  0  0
 13 16  1  0  0  0  0
  9 17  1  0  0  0  0
 17 18  1  0  0  0  0
 17 19  1  0  0  0  0
 17 20  1  0  0  0  0
 20  1  1  0  0  0  0
 20 21  1  0  0  0  0
 21 22  1  0  0  0  0
 21 23  1  0  0  0  0
 21 24  1  0  0  0  0
M  END
> <ChemID>
100065

> <source_casrn>
63-75-2

> <CAS>
63-75-2

> <SMILES>
CN1CC(=CCC1)C(=O)OC

> <NAME>
ARECOLINE

> <preferred_name>
Arecoline

> <iupac>
methyl 1-methyl-1,2,5,6-tetrahydropyridine-3-carboxylate

> <MPID>
24713

> <dsstox_substance_id>
DTXSID3022617

> <Canonical_QSARr>
CN1CC(=CCC1)C(=O)OC

> <InChI_Code_QSARr>
InChI=1S/C8H13NO2/c1-9-5-3-4-7(6-9)8(10)11-2/h4H,3,5-6H2,1-2H3

> <InChI Key_QSARr>
HJJPJSXJAXAIPN-UHFFFAOYSA-N

> <Salt_Solvent>
?

> <LogVP>
-1.1018

$$$$
100069
  -INDIGO-08031723152D

 19 18  0  0  0  0  0  0  0  0999 V2000
    1.3856    0.8000    0.0000 C   0  0  0  0  0  0  0  0  0  0  0  0
    2.7713    1.6000    0.0000 H   0  0  0  0  0  0  0  0  0  0  0  0
    2.7713    0.0000    0.0000 H   0  0  0  0  0  0  0  0  0  0  0  0
    1.3856    2.4000    0.0000 H   0  0  0  0  0  0  0  0  0  0  0  0
   -0.0000    0.0000    0.0000 C   0  0  0  0  0  0  0  0  0  0  0  0
    0.6123   -1.4782    0.0000 H   0  0  0  0  0  0  0  0  0  0  0  0
   -0.6124   -1.4782    0.0000 H   0  0  0  0  0  0  0  0  0  0  0  0
   -1.3857    0.8000    0.0000 O   0  0  0  0  0  0  0  0  0  0  0  0
   -2.7712   -0.0000    0.0000 S   0  0  0  0  0  0  0  0  0  0  0  0
   -4.1569   -0.8000    0.0000 O   0  0  0  0  0  0  0  0  0  0  0  0
   -5.5425   -0.0000    0.0000 C   0  0  0  0  0  0  0  0  0  0  0  0
   -6.1548    1.4782    0.0000 H   0  0  0  0  0  0  0  0  0  0  0  0
   -4.9302    1.4782    0.0000 H   0  0  0  0  0  0  0  0  0  0  0  0
   -6.9282   -0.8000    0.0000 C   0  0  0  0  0  0  0  0  0  0  0  0
   -8.3138   -1.6000    0.0000 H   0  0  0  0  0  0  0  0  0  0  0  0
   -8.3138   -0.0000    0.0000 H   0  0  0  0  0  0  0  0  0  0  0  0
   -6.9282   -2.4000    0.0000 H   0  0  0  0  0  0  0  0  0  0  0  0
   -3.5713    1.3857    0.0000 O   0  0  0  0  0  0  0  0  0  0  0  0
   -1.9713   -1.3857    0.0000 O   0  0  0  0  0  0  0  0  0  0  0  0
  1  2  1  0  0  0  0
  1  3  1  0  0  0  0
  1  4  1  0  0  0  0
  1  5  1  0  0  0  0
  5  6  1  0  0  0  0
  5  7  1  0  0  0  0
  5  8  1  0  0  0  0
  8  9  1  0  0  0  0
  9 10  1  0  0  0  0
 10 11  1  0  0  0  0
 11 12  1  0  0  0  0
 11 13  1  0  0  0  0
 11 14  1  0  0  0  0
 14 15  1  0  0  0  0
 14 16  1  0  0  0  0
 14 17  1  0  0  0  0
  9 18  2  0  0  0  0
  9 19  2  0  0  0  0
M  END
> <ChemID>
100069

> <source_casrn>
64-67-5

> <CAS>
64-67-5

> <SMILES>
CCOS(=O)(=O)OCC

> <NAME>
DIETHYL SULFATE

> <preferred_name>
Diethyl sulfate

> <iupac>
diethyl sulfate

> <MPID>
24717

> <dsstox_substance_id>
DTXSID1024045

> <Canonical_QSARr>
CCOS(=O)(=O)OCC

> <InChI_Code_QSARr>
InChI=1S/C4H10O4S/c1-3-7-9(5,6)8-4-2/h3-4H2,1-2H3

> <InChI Key_QSARr>
DENRZWYUOJLTMF-UHFFFAOYSA-N

> <Salt_Solvent>
?

> <LogVP>
-0.6737

$$$$
100073
  -INDIGO-08031723152D

 13 13  0  0  0  0  0  0  0  0999 V2000
    0.0000    2.7713    0.0000 O   0  0  0  0  0  0  0  0  0  0  0  0
   -0.8000    1.3856    0.0000 C   0  0  0  0  0  0  0  0  0  0  0  0
    0.0000   -0.0000    0.0000 C   0  0  0  0  0  0  0  0  0  0  0  0
    1.2257    1.0285    0.0000 H   0  0  0  0  0  0  0  0  0  0  0  0
    1.2257   -1.0285    0.0000 H   0  0  0  0  0  0  0  0  0  0  0  0
   -0.8000   -1.3856    0.0000 C   0  0  0  0  0  0  0  0  0  0  0  0
    0.0000   -2.7713    0.0000 O   0  0  0  0  0  0  0  0  0  0  0  0
   -2.4000   -1.3856    0.0000 N   0  0  0  0  0  0  0  0  0  0  0  0
   -3.2000   -2.7713    0.0000 H   0  0  0  0  0  0  0  0  0  0  0  0
   -3.2000   -0.0000    0.0000 C   0  0  0  0  0  0  0  0  0  0  0  0
   -4.8000   -0.0000    0.0000 O   0  0  0  0  0  0  0  0  0  0  0  0
   -2.4000    1.3856    0.0000 N   0  0  0  0  0  0  0  0  0  0  0  0
   -3.2000    2.7713    0.0000 H   0  0  0  0  0  0  0  0  0  0  0  0
  1  2  2  0  0  0  0
  2  3  1  0  0  0  0
  3  4  1  0  0  0  0
  3  5  1  0  0  0  0
  3  6  1  0  0  0  0
  6  7  2  0  0  0  0
  6  8  1  0  0  0  0
  8  9  1  0  0  0  0
  8 10  1  0  0  0  0
 10 11  2  0  0  0  0
 10 12  1  0  0  0  0
 12  2  1  0  0  0  0
 12 13  1  0  0  0  0
M  END
> <ChemID>
100073

> <source_casrn>
67-52-7

> <CAS>
67-52-7

> <SMILES>
O=C1NC(=O)CC(=O)N1

> <NAME>
BARBITURIC ACID

> <preferred_name>
Barbituric acid

> <iupac>
pyrimidine-2,4,6(1H,3H,5H)-trione

> <MPID>
24721

> <dsstox_substance_id>
DTXSID8020129

> <Canonical_QSARr>
O=C1NC(=O)CC(=O)N1

> <InChI_Code_QSARr>
InChI=1S/C4H4N2O3/c7-2-1-3(8)6-4(9)5-2/h1H2,(H2,5,6,7,8,9)

> <InChI Key_QSARr>
HNYOPLTXPVRDBG-UHFFFAOYSA-N

> <Salt_Solvent>
?

> <LogVP>
-7.8239

$$$$
100077
  -INDIGO-08031723152D

 10  9  0  0  0  0  0  0  0  0999 V2000
    1.3856    0.8000    0.0000 C   0  0  0  0  0  0  0  0  0  0  0  0
    2.7713    1.6000    0.0000 H   0  0  0  0  0  0  0  0  0  0  0  0
    2.7713    0.0000    0.0000 H   0  0  0  0  0  0  0  0  0  0  0  0
    1.3856    2.4000    0.0000 H   0  0  0  0  0  0  0  0  0  0  0  0
    0.0000    0.0000    0.0000 C   0  0  0  0  0  0  0  0  0  0  0  0
   -1.3856    0.8000    0.0000 C   0  0  0  0  0  0  0  0  0  0  0  0
   -2.7713    1.6000    0.0000 H   0  0  0  0  0  0  0  0  0  0  0  0
   -2.7713    0.0000    0.0000 H   0  0  0  0  0  0  0  0  0  0  0  0
   -1.3856    2.4000    0.0000 H   0  0  0  0  0  0  0  0  0  0  0  0
    0.0000   -1.6000    0.0000 O   0  0  0  0  0  0  0  0  0  0  0  0
  1  2  1  0  0  0  0
  1  3  1  0  0  0  0
  1  4  1  0  0  0  0
  1  5  1  0  0  0  0
  5  6  1  0  0  0  0
  6  7  1  0  0  0  0
  6  8  1  0  0  0  0
  6  9  1  0  0  0  0
  5 10  2  0  0  0  0
M  END
> <ChemID>
100077

> <source_casrn>
67-64-1

> <CAS>
67-64-1

> <SMILES>
CC(C)=O

> <NAME>
ACETONE

> <preferred_name>
Acetone

> <iupac>
propan-2-one

> <MPID>
24725

> <dsstox_substance_id>
DTXSID8021482

> <Canonical_QSARr>
CC(C)=O

> <InChI_Code_QSARr>
InChI=1S/C3H6O/c1-3(2)4/h1-2H3

> <InChI Key_QSARr>
CSCPPACGZOOCGX-UHFFFAOYSA-N

> <Salt_Solvent>
?

> <LogVP>
2.3646

$$$$
100081
  -INDIGO-08031723152D

  9  8  0  0  0  0  0  0  0  0999 V2000
    2.4000    1.3856    0.0000 O   0  0  0  0  0  0  0  0  0  0  0  0
    1.6000    0.0000    0.0000 C   0  0  0  0  0  0  0  0  0  0  0  0
    2.4000   -1.3856    0.0000 O   0  0  0  0  0  0  0  0  0  0  0  0
    4.0000   -1.3856    0.0000 H   0  0  0  0  0  0  0  0  0  0  0  0
    0.0000    0.0000    0.0000 C   0  0  0  0  0  0  0  0  0  0  0  0
   -0.2089   -1.5863    0.0000 H   0  0  0  0  0  0  0  0  0  0  0  0
   -1.2693   -0.9740    0.0000 H   0  0  0  0  0  0  0  0  0  0  0  0
   -0.8000    1.3856    0.0000 S   0  0  0  0  0  0  0  0  0  0  0  0
   -2.4000    1.3856    0.0000 H   0  0  0  0  0  0  0  0  0  0  0  0
  1  2  2  0  0  0  0
  2  3  1  0  0  0  0
  3  4  1  0  0  0  0
  2  5  1  0  0  0  0
  5  6  1  0  0  0  0
  5  7  1  0  0  0  0
  5  8  1  0  0  0  0
  8  9  1  0  0  0  0
M  END
> <ChemID>
100081

> <source_casrn>
68-11-1

> <CAS>
68-11-1

> <SMILES>
OC(=O)CS

> <NAME>
MERCAPTOACETIC ACID

> <preferred_name>
Thioglycolic acid

> <iupac>
sulfanylacetic acid

> <MPID>
24729

> <dsstox_substance_id>
DTXSID8026141

> <Canonical_QSARr>
OC(=O)CS

> <InChI_Code_QSARr>
InChI=1S/C2H4O2S/c3-2(4)1-5/h5H,1H2,(H,3,4)

> <InChI Key_QSARr>
CWERGRDVMFNCDR-UHFFFAOYSA-N

> <Salt_Solvent>
?

> <LogVP>
-1.0615

$$$$
100085
  -INDIGO-08031723152D

 15 14  0  0  0  0  0  0  0  0999 V2000
    2.7713   -0.0000    0.0000 C   0  0  0  0  0  0  0  0  0  0  0  0
    4.1569   -0.8000    0.0000 H   0  0  0  0  0  0  0  0  0  0  0  0
    4.1569    0.8000    0.0000 H   0  0  0  0  0  0  0  0  0  0  0  0
    2.7713   -1.6000    0.0000 H   0  0  0  0  0  0  0  0  0  0  0  0
    1.3856    0.8000    0.0000 C   0  0  0  0  0  0  0  0  0  0  0  0
    0.7734    2.2782    0.0000 H   0  0  0  0  0  0  0  0  0  0  0  0
    1.9979    2.2782    0.0000 H   0  0  0  0  0  0  0  0  0  0  0  0
    0.0001   -0.0000    0.0000 C   0  0  0  0  0  0  0  0  0  0  0  0
    0.6123   -1.4782    0.0000 H   0  0  0  0  0  0  0  0  0  0  0  0
   -0.6123   -1.4782    0.0000 H   0  0  0  0  0  0  0  0  0  0  0  0
   -1.3856    0.8000    0.0000 C   0  0  0  0  0  0  0  0  0  0  0  0
   -1.9979    2.2782    0.0000 H   0  0  0  0  0  0  0  0  0  0  0  0
   -0.7734    2.2782    0.0000 H   0  0  0  0  0  0  0  0  0  0  0  0
   -2.7713   -0.0000    0.0000 O   0  0  0  0  0  0  0  0  0  0  0  0
   -4.1569    0.8000    0.0000 H   0  0  0  0  0  0  0  0  0  0  0  0
  1  2  1  0  0  0  0
  1  3  1  0  0  0  0
  1  4  1  0  0  0  0
  1  5  1  0  0  0  0
  5  6  1  0  0  0  0
  5  7  1  0  0  0  0
  5  8  1  0  0  0  0
  8  9  1  0  0  0  0
  8 10  1  0  0  0  0
  8 11  1  0  0  0  0
 11 12  1  0  0  0  0
 11 13  1  0  0  0  0
 11 14  1  0  0  0  0
 14 15  1  0  0  0  0
M  END
> <ChemID>
100085

> <source_casrn>
71-36-3

> <CAS>
71-36-3

> <SMILES>
CCCCO

> <NAME>
1-BUTANOL

> <preferred_name>
1-Butanol

> <iupac>
butan-1-ol

> <MPID>
24733

> <dsstox_substance_id>
DTXSID1021740

> <Canonical_QSARr>
CCCCO

> <InChI_Code_QSARr>
InChI=1S/C4H10O/c1-2-3-4-5/h5H,2-4H2,1H3

> <InChI Key_QSARr>
LRHPLDYGYMQRHN-UHFFFAOYSA-N

> <Salt_Solvent>
?

> <LogVP>
0.8261

$$$$
100090
  -INDIGO-08031723152D

 26 28  0  0  0  0  0  0  0  0999 V2000
    4.1569    0.8000    0.0000 O   0  0  0  0  0  0  0  0  0  0  0  0
    5.5426   -0.0000    0.0000 H   0  0  0  0  0  0  0  0  0  0  0  0
    2.7713   -0.0000    0.0000 C   0  0  0  0  0  0  0  0  0  0  0  0
    2.7713   -1.6000    0.0000 C   0  0  0  0  0  0  0  0  0  0  0  0
    4.1569   -2.4000    0.0000 H   0  0  0  0  0  0  0  0  0  0  0  0
    1.3856   -2.4000    0.0000 C   0  0  0  0  0  0  0  0  0  0  0  0
    1.3856   -4.0000    0.0000 H   0  0  0  0  0  0  0  0  0  0  0  0
   -0.0001   -1.6000    0.0000 C   0  0  0  0  0  0  0  0  0  0  0  0
   -0.0001   -0.0000    0.0000 C   0  0  0  0  0  0  0  0  0  0  0  0
   -1.3856    0.8000    0.0000 C   0  0  0  0  0  0  0  0  0  0  0  0
   -2.7713   -0.0000    0.0000 C   0  0  0  0  0  0  0  0  0  0  0  0
   -2.7713   -1.6000    0.0000 C   0  0  0  0  0  0  0  0  0  0  0  0
   -1.3856   -2.4000    0.0000 C   0  0  0  0  0  0  0  0  0  0  0  0
   -1.3856   -4.0000    0.0000 O   0  0  0  0  0  0  0  0  0  0  0  0
   -4.1570   -2.4000    0.0000 C   0  0  0  0  0  0  0  0  0  0  0  0
   -4.1570   -4.0000    0.0000 H   0  0  0  0  0  0  0  0  0  0  0  0
   -5.5425   -1.6000    0.0000 C   0  0  0  0  0  0  0  0  0  0  0  0
   -6.9282   -2.4000    0.0000 H   0  0  0  0  0  0  0  0  0  0  0  0
   -5.5425   -0.0000    0.0000 C   0  0  0  0  0  0  0  0  0  0  0  0
   -6.9282    0.8000    0.0000 H   0  0  0  0  0  0  0  0  0  0  0  0
   -4.1570    0.8000    0.0000 C   0  0  0  0  0  0  0  0  0  0  0  0
   -4.1570    2.4000    0.0000 H   0  0  0  0  0  0  0  0  0  0  0  0
   -1.3856    2.4000    0.0000 O   0  0  0  0  0  0  0  0  0  0  0  0
    1.3856    0.8000    0.0000 C   0  0  0  0  0  0  0  0  0  0  0  0
    1.3856    2.4000    0.0000 O   0  0  0  0  0  0  0  0  0  0  0  0
    2.7713    3.2000    0.0000 H   0  0  0  0  0  0  0  0  0  0  0  0
  1  2  1  0  0  0  0
  1  3  1  0  0  0  0
  3  4  1  0  0  0  0
  4  5  1  0  0  0  0
  4  6  2  0  0  0  0
  6  7  1  0  0  0  0
  6  8  1  0  0  0  0
  8  9  2  0  0  0  0
  9 10  1  0  0  0  0
 10 11  1  0  0  0  0
 11 12  1  0  0  0  0
 12 13  1  0  0  0  0
 13  8  1  0  0  0  0
 13 14  2  0  0  0  0
 12 15  2  0  0  0  0
 15 16  1  0  0  0  0
 15 17  1  0  0  0  0
 17 18  1  0  0  0  0
 17 19  2  0  0  0  0
 19 20  1  0  0  0  0
 19 21  1  0  0  0  0
 21 11  2  0  0  0  0
 21 22  1  0  0  0  0
 10 23  2  0  0  0  0
  9 24  1  0  0  0  0
 24  3  2  0  0  0  0
 24 25  1  0  0  0  0
 25 26  1  0  0  0  0
M  END
> <ChemID>
100090

> <source_casrn>
72-48-0

> <CAS>
72-48-0

> <SMILES>
Oc1ccc2c(C(=O)c3ccccc3C2=O)c1O

> <NAME>
ALIZARINE

> <preferred_name>
Alizarin

> <iupac>
1,2-dihydroxyanthracene-9,10-dione

> <MPID>
24738

> <dsstox_substance_id>
DTXSID5045960

> <Canonical_QSARr>
Oc1ccc2c(C(=O)c3ccccc3C2=O)c1O

> <InChI_Code_QSARr>
InChI=1S/C14H8O4/c15-10-6-5-9-11(14(10)18)13(17)8-4-2-1-3-7(8)12(9)16/h1-6,15,18H

> <InChI Key_QSARr>
RGCKGOZRHPZPFP-UHFFFAOYSA-N

> <Salt_Solvent>
?

> <LogVP>
-9.0577

$$$$
100094
  -INDIGO-08031723152D

 36 38  0  0  0  0  0  0  0  0999 V2000
   -1.3857    0.8000    0.0000 N   0  0  0  0  0  0  0  0  0  0  0  0
   -1.1079    2.3757    0.0000 H   0  0  0  0  0  0  0  0  0  0  0  0
    0.0001    0.0000    0.0000 C   0  0  0  0  0  0  0  0  0  0  0  0
    1.3855    0.8000    0.0000 C   0  0  0  0  0  0  0  0  0  0  0  0
    1.3855    2.4000    0.0000 H   0  0  0  0  0  0  0  0  0  0  0  0
    2.7712    0.0000    0.0000 C   0  0  0  0  0  0  0  0  0  0  0  0
    4.1569    0.8000    0.0000 H   0  0  0  0  0  0  0  0  0  0  0  0
    2.7712   -1.6000    0.0000 C   0  0  0  0  0  0  0  0  0  0  0  0
    4.1569   -2.4000    0.0000 N   0  0  0  0  0  0  0  0  0  0  0  0
    3.8792   -3.9757    0.0000 H   0  0  0  0  0  0  0  0  0  0  0  0
    5.7326   -2.1221    0.0000 C   0  0  0  0  0  0  0  0  0  0  0  0
    6.2798   -0.6187    0.0000 C   0  0  0  0  0  0  0  0  0  0  0  0
    5.2513    0.6071    0.0000 H   0  0  0  0  0  0  0  0  0  0  0  0
    7.8555   -0.3409    0.0000 C   0  0  0  0  0  0  0  0  0  0  0  0
    8.4027    1.1627    0.0000 H   0  0  0  0  0  0  0  0  0  0  0  0
    8.8840   -1.5665    0.0000 C   0  0  0  0  0  0  0  0  0  0  0  0
   10.4597   -1.2887    0.0000 H   0  0  0  0  0  0  0  0  0  0  0  0
    8.3368   -3.0700    0.0000 C   0  0  0  0  0  0  0  0  0  0  0  0
    9.3653   -4.2957    0.0000 H   0  0  0  0  0  0  0  0  0  0  0  0
    6.7611   -3.3479    0.0000 C   0  0  0  0  0  0  0  0  0  0  0  0
    6.2139   -4.8513    0.0000 H   0  0  0  0  0  0  0  0  0  0  0  0
    1.3855   -2.4000    0.0000 C   0  0  0  0  0  0  0  0  0  0  0  0
    1.3855   -4.0000    0.0000 H   0  0  0  0  0  0  0  0  0  0  0  0
    0.0001   -1.6000    0.0000 C   0  0  0  0  0  0  0  0  0  0  0  0
   -1.3857   -2.4000    0.0000 H   0  0  0  0  0  0  0  0  0  0  0  0
   -2.9613    0.5221    0.0000 C   0  0  0  0  0  0  0  0  0  0  0  0
   -3.5085   -0.9813    0.0000 C   0  0  0  0  0  0  0  0  0  0  0  0
   -2.4801   -2.2071    0.0000 H   0  0  0  0  0  0  0  0  0  0  0  0
   -5.0842   -1.2591    0.0000 C   0  0  0  0  0  0  0  0  0  0  0  0
   -5.6314   -2.7627    0.0000 H   0  0  0  0  0  0  0  0  0  0  0  0
   -6.1127   -0.0335    0.0000 C   0  0  0  0  0  0  0  0  0  0  0  0
   -7.6884   -0.3113    0.0000 H   0  0  0  0  0  0  0  0  0  0  0  0
   -5.5655    1.4700    0.0000 C   0  0  0  0  0  0  0  0  0  0  0  0
   -6.5940    2.6957    0.0000 H   0  0  0  0  0  0  0  0  0  0  0  0
   -3.9898    1.7479    0.0000 C   0  0  0  0  0  0  0  0  0  0  0  0
   -3.4426    3.2513    0.0000 H   0  0  0  0  0  0  0  0  0  0  0  0
  1  2  1  0  0  0  0
  1  3  1  0  0  0  0
  3  4  1  0  0  0  0
  4  5  1  0  0  0  0
  4  6  2  0  0  0  0
  6  7  1  0  0  0  0
  6  8  1  0  0  0  0
  8  9  1  0  0  0  0
  9 10  1  0  0  0  0
  9 11  1  0  0  0  0
 11 12  1  0  0  0  0
 12 13  1  0  0  0  0
 12 14  2  0  0  0  0
 14 15  1  0  0  0  0
 14 16  1  0  0  0  0
 16 17  1  0  0  0  0
 16 18  2  0  0  0  0
 18 19  1  0  0  0  0
 18 20  1  0  0  0  0
 20 11  2  0  0  0  0
 20 21  1  0  0  0  0
  8 22  2  0  0  0  0
 22 23  1  0  0  0  0
 22 24  1  0  0  0  0
 24  3  2  0  0  0  0
 24 25  1  0  0  0  0
  1 26  1  0  0  0  0
 26 27  1  0  0  0  0
 27 28  1  0  0  0  0
 27 29  2  0  0  0  0
 29 30  1  0  0  0  0
 29 31  1  0  0  0  0
 31 32  1  0  0  0  0
 31 33  2  0  0  0  0
 33 34  1  0  0  0  0
 33 35  1  0  0  0  0
 35 26  2  0  0  0  0
 35 36  1  0  0  0  0
M  END
> <ChemID>
100094

> <source_casrn>
74-31-7

> <CAS>
74-31-7

> <SMILES>
c1cc(ccc1Nc1ccccc1)Nc1ccccc1

> <NAME>
N,N'-DIPHENYL-P-BENZENEDIAMINE

> <preferred_name>
N,N'-Diphenyl-p-phenylenediamine

> <iupac>
N,N'-diphenylbenzene-1,4-diamine

> <MPID>
24742

> <dsstox_substance_id>
DTXSID9020538

> <Canonical_QSARr>
c1cc(ccc1Nc1ccccc1)Nc1ccccc1

> <InChI_Code_QSARr>
InChI=1S/C18H16N2/c1-3-7-15(8-4-1)19-17-11-13-18(14-12-17)20-16-9-5-2-6-10-16/h1-14,19-20H

> <InChI Key_QSARr>
UTGQNNCQYDRXCH-UHFFFAOYSA-N

> <Salt_Solvent>
?

> <LogVP>
-8.1971

$$$$
100098
  -INDIGO-08031723152D

  6  5  0  0  0  0  0  0  0  0999 V2000
   -0.0000    0.0000    0.0000 C   0  0  0  0  0  0  0  0  0  0  0  0
    0.8000    1.3856    0.0000 H   0  0  0  0  0  0  0  0  0  0  0  0
    0.8000   -1.3856    0.0000 H   0  0  0  0  0  0  0  0  0  0  0  0
   -1.6000    0.0000    0.0000 C   0  0  0  0  0  0  0  0  0  0  0  0
   -2.4000    1.3856    0.0000 H   0  0  0  0  0  0  0  0  0  0  0  0
   -2.4000   -1.3856    0.0000 H   0  0  0  0  0  0  0  0  0  0  0  0
  1  2  1  0  0  0  0
  1  3  1  0  0  0  0
  1  4  2  0  0  0  0
  4  5  1  0  0  0  0
  4  6  1  0  0  0  0
M  END
> <ChemID>
100098

> <source_casrn>
74-85-1

> <CAS>
74-85-1

> <SMILES>
C=C

> <NAME>
ETHYLENE

> <preferred_name>
Ethylene

> <iupac>
ethene

> <MPID>
24746

> <dsstox_substance_id>
DTXSID1026378

> <Canonical_QSARr>
C=C

> <InChI_Code_QSARr>
InChI=1S/C2H4/c1-2/h1-2H2

> <InChI Key_QSARr>
VGGSQFUCUMXWEO-UHFFFAOYSA-N

> <Salt_Solvent>
?

> <LogVP>
4.7171

$$$$
100102
  -INDIGO-08031723152D

  7  6  0  0  0  0  0  0  0  0999 V2000
    1.6000    0.0000    0.0000 N   0  0  0  0  0  0  0  0  0  0  0  0
    2.4000    1.3856    0.0000 H   0  0  0  0  0  0  0  0  0  0  0  0
    2.4000   -1.3856    0.0000 H   0  0  0  0  0  0  0  0  0  0  0  0
    0.0000    0.0000    0.0000 C   0  0  0  0  0  0  0  0  0  0  0  0
   -1.6000    0.0000    0.0000 H   0  0  0  0  0  0  0  0  0  0  0  0
   -0.8000    1.3856    0.0000 H   0  0  0  0  0  0  0  0  0  0  0  0
   -0.8000   -1.3856    0.0000 H   0  0  0  0  0  0  0  0  0  0  0  0
  1  2  1  0  0  0  0
  1  3  1  0  0  0  0
  1  4  1  0  0  0  0
  4  5  1  0  0  0  0
  4  6  1  0  0  0  0
  4  7  1  0  0  0  0
M  END
> <ChemID>
100102

> <source_casrn>
74-89-5

> <CAS>
74-89-5

> <SMILES>
CN

> <NAME>
METHYLAMINE

> <preferred_name>
Methylamine

> <iupac>
methanamine

> <MPID>
24750

> <dsstox_substance_id>
DTXSID7025683

> <Canonical_QSARr>
CN

> <InChI_Code_QSARr>
InChI=1S/CH5N/c1-2/h2H2,1H3

> <InChI Key_QSARr>
BAVYZALUXZFZLV-UHFFFAOYSA-N

> <Salt_Solvent>
?

> <LogVP>
3.4232

$$$$
100106
  -INDIGO-08031723152D

  8  7  0  0  0  0  0  0  0  0999 V2000
    0.0000    0.0000    0.0000 C   0  0  0  0  0  0  0  0  0  0  0  0
    1.6000   -0.0000    0.0000 H   0  0  0  0  0  0  0  0  0  0  0  0
    0.8000   -1.3856    0.0000 H   0  0  0  0  0  0  0  0  0  0  0  0
    0.8000    1.3856    0.0000 H   0  0  0  0  0  0  0  0  0  0  0  0
   -1.6000    0.0000    0.0000 C   0  0  0  0  0  0  0  0  0  0  0  0
   -3.2000    0.0000    0.0000 H   0  0  0  0  0  0  0  0  0  0  0  0
   -2.4000   -1.3856    0.0000 H   0  0  0  0  0  0  0  0  0  0  0  0
   -2.4000    1.3856    0.0000 Br  0  0  0  0  0  0  0  0  0  0  0  0
  1  2  1  0  0  0  0
  1  3  1  0  0  0  0
  1  4  1  0  0  0  0
  1  5  1  0  0  0  0
  5  6  1  0  0  0  0
  5  7  1  0  0  0  0
  5  8  1  0  0  0  0
M  END
> <ChemID>
100106

> <source_casrn>
74-96-4

> <CAS>
74-96-4

> <SMILES>
CCBr

> <NAME>
BROMOETHANE

> <preferred_name>
Bromoethane

> <iupac>
bromoethane

> <MPID>
24754

> <dsstox_substance_id>
DTXSID6020199

> <Canonical_QSARr>
CCBr

> <InChI_Code_QSARr>
InChI=1S/C2H5Br/c1-2-3/h2H2,1H3

> <InChI Key_QSARr>
RDHPKYGYEGBMSE-UHFFFAOYSA-N

> <Salt_Solvent>
?

> <LogVP>
2.6693

$$$$
100110
  -INDIGO-08031723152D

  8  7  0  0  0  0  0  0  0  0999 V2000
    0.0000    0.0000    0.0000 C   0  0  0  0  0  0  0  0  0  0  0  0
    1.6000   -0.0000    0.0000 H   0  0  0  0  0  0  0  0  0  0  0  0
    0.8000   -1.3856    0.0000 H   0  0  0  0  0  0  0  0  0  0  0  0
    0.8000    1.3856    0.0000 H   0  0  0  0  0  0  0  0  0  0  0  0
   -1.6000    0.0000    0.0000 C   0  0  0  0  0  0  0  0  0  0  0  0
   -3.2000    0.0000    0.0000 H   0  0  0  0  0  0  0  0  0  0  0  0
   -2.4000   -1.3856    0.0000 H   0  0  0  0  0  0  0  0  0  0  0  0
   -2.4000    1.3856    0.0000 Cl  0  0  0  0  0  0  0  0  0  0  0  0
  1  2  1  0  0  0  0
  1  3  1  0  0  0  0
  1  4  1  0  0  0  0
  1  5  1  0  0  0  0
  5  6  1  0  0  0  0
  5  7  1  0  0  0  0
  5  8  1  0  0  0  0
M  END
> <ChemID>
100110

> <source_casrn>
75-00-3

> <CAS>
75-00-3

> <SMILES>
CCCl

> <NAME>
CHLOROETHANE

> <preferred_name>
Chloroethane

> <iupac>
chloroethane

> <MPID>
24758

> <dsstox_substance_id>
DTXSID1020302

> <Canonical_QSARr>
CCCl

> <InChI_Code_QSARr>
InChI=1S/C2H5Cl/c1-2-3/h2H2,1H3

> <InChI Key_QSARr>
HRYZWHHZPQKTII-UHFFFAOYSA-N

> <Salt_Solvent>
?

> <LogVP>
3.0035

$$$$
100114
  -INDIGO-08031723152D

 10  9  0  0  0  0  0  0  0  0999 V2000
    1.3856    0.8000    0.0000 N   0  0  0  0  0  0  0  0  0  0  0  0
    2.7713    0.0000    0.0000 H   0  0  0  0  0  0  0  0  0  0  0  0
    1.3856    2.4000    0.0000 H   0  0  0  0  0  0  0  0  0  0  0  0
    0.0000    0.0000    0.0000 C   0  0  0  0  0  0  0  0  0  0  0  0
   -0.6123   -1.4782    0.0000 H   0  0  0  0  0  0  0  0  0  0  0  0
    0.6123   -1.4782    0.0000 H   0  0  0  0  0  0  0  0  0  0  0  0
   -1.3856    0.8000    0.0000 C   0  0  0  0  0  0  0  0  0  0  0  0
   -2.7713    1.6000    0.0000 H   0  0  0  0  0  0  0  0  0  0  0  0
   -2.7713    0.0000    0.0000 H   0  0  0  0  0  0  0  0  0  0  0  0
   -1.3856    2.4000    0.0000 H   0  0  0  0  0  0  0  0  0  0  0  0
  1  2  1  0  0  0  0
  1  3  1  0  0  0  0
  1  4  1  0  0  0  0
  4  5  1  0  0  0  0
  4  6  1  0  0  0  0
  4  7  1  0  0  0  0
  7  8  1  0  0  0  0
  7  9  1  0  0  0  0
  7 10  1  0  0  0  0
M  END
> <ChemID>
100114

> <source_casrn>
75-04-7

> <CAS>
75-04-7

> <SMILES>
CCN

> <NAME>
ETHYLAMINE

> <preferred_name>
Ethanamine

> <iupac>
ethanamine

> <MPID>
24762

> <dsstox_substance_id>
DTXSID8025678

> <Canonical_QSARr>
CCN

> <InChI_Code_QSARr>
InChI=1S/C2H7N/c1-2-3/h2-3H2,1H3

> <InChI Key_QSARr>
QUSNBJAOOMFDIB-UHFFFAOYSA-N

> <Salt_Solvent>
?

> <LogVP>
3.0204

$$$$
100118
  -INDIGO-08031723152D

  5  4  0  0  0  0  0  0  0  0999 V2000
   -0.8000   -1.3856    0.0000 Cl  0  0  0  0  0  0  0  0  0  0  0  0
    0.0000    0.0000    0.0000 C   0  0  0  0  0  0  0  0  0  0  0  0
    0.8000    1.3856    0.0000 H   0  0  0  0  0  0  0  0  0  0  0  0
   -1.3856    0.8000    0.0000 H   0  0  0  0  0  0  0  0  0  0  0  0
    1.3856   -0.8000    0.0000 Cl  0  0  0  0  0  0  0  0  0  0  0  0
  1  2  1  0  0  0  0
  2  3  1  0  0  0  0
  2  4  1  0  0  0  0
  2  5  1  0  0  0  0
M  END
> <ChemID>
100118

> <source_casrn>
75-09-2

> <CAS>
75-09-2

> <SMILES>
ClCCl

> <NAME>
DICHLOROMETHANE

> <preferred_name>
Dichloromethane

> <iupac>
dichloromethane

> <MPID>
24766

> <dsstox_substance_id>
DTXSID0020868

> <Canonical_QSARr>
ClCCl

> <InChI_Code_QSARr>
InChI=1S/CH2Cl2/c2-1-3/h1H2

> <InChI Key_QSARr>
YMWUJEATGCHHMB-UHFFFAOYSA-N

> <Salt_Solvent>
?

> <LogVP>
2.6385

$$$$
100122
  -INDIGO-08031723152D

  3  2  0  0  0  0  0  0  0  0999 V2000
    0.0000    0.0000    0.0000 C   0  0  0  0  0  0  0  0  0  0  0  0
    1.6000    0.0000    0.0000 S   0  0  0  0  0  0  0  0  0  0  0  0
   -1.6000    0.0000    0.0000 S   0  0  0  0  0  0  0  0  0  0  0  0
  1  2  2  0  0  0  0
  1  3  2  0  0  0  0
M  END
> <ChemID>
100122

> <source_casrn>
75-15-0

> <CAS>
75-15-0

> <SMILES>
S=C=S

> <NAME>
CARBON DISULFIDE

> <preferred_name>
Carbon disulfide

> <iupac>
methanedithione

> <MPID>
24770

> <dsstox_substance_id>
DTXSID6023947

> <Canonical_QSARr>
S=C=S

> <InChI_Code_QSARr>
InChI=1S/CS2/c2-1-3

> <InChI Key_QSARr>
QGJOPFRUJISHPQ-UHFFFAOYSA-N

> <Salt_Solvent>
?

> <LogVP>
2.5551

$$$$
100128
  -INDIGO-08031723152D

  5  4  0  0  0  0  0  0  0  0999 V2000
    0.0000    0.0000    0.0000 C   0  0  0  0  0  0  0  0  0  0  0  0
    0.8000    1.3856    0.0000 H   0  0  0  0  0  0  0  0  0  0  0  0
   -1.3856    0.8000    0.0000 Br  0  0  0  0  0  0  0  0  0  0  0  0
    1.3856   -0.8000    0.0000 Br  0  0  0  0  0  0  0  0  0  0  0  0
   -0.8000   -1.3856    0.0000 Br  0  0  0  0  0  0  0  0  0  0  0  0
  1  2  1  0  0  0  0
  1  3  1  0  0  0  0
  1  4  1  0  0  0  0
  1  5  1  0  0  0  0
M  END
> <ChemID>
100128

> <source_casrn>
75-25-2

> <CAS>
75-25-2

> <SMILES>
BrC(Br)Br

> <NAME>
BROMOFORM

> <preferred_name>
Bromoform

> <iupac>
tribromomethane

> <MPID>
24774

> <dsstox_substance_id>
DTXSID1021374

> <Canonical_QSARr>
BrC(Br)Br

> <InChI_Code_QSARr>
InChI=1S/CHBr3/c2-1(3)4/h1H

> <InChI Key_QSARr>
DIKBFYAXUHHXCS-UHFFFAOYSA-N

> <Salt_Solvent>
?

> <LogVP>
0.7324

$$$$
100132
  -INDIGO-08031723152D

 11 10  0  0  0  0  0  0  0  0999 V2000
    0.0000    0.0000    0.0000 C   0  0  0  0  0  0  0  0  0  0  0  0
    0.6123   -1.4782    0.0000 H   0  0  0  0  0  0  0  0  0  0  0  0
   -1.3856    0.8000    0.0000 C   0  0  0  0  0  0  0  0  0  0  0  0
   -2.7713    1.6000    0.0000 H   0  0  0  0  0  0  0  0  0  0  0  0
   -2.7713    0.0000    0.0000 H   0  0  0  0  0  0  0  0  0  0  0  0
   -1.3856    2.4000    0.0000 H   0  0  0  0  0  0  0  0  0  0  0  0
    1.3856    0.8000    0.0000 C   0  0  0  0  0  0  0  0  0  0  0  0
    2.7713    1.6000    0.0000 H   0  0  0  0  0  0  0  0  0  0  0  0
    2.7713    0.0000    0.0000 H   0  0  0  0  0  0  0  0  0  0  0  0
    1.3856    2.4000    0.0000 H   0  0  0  0  0  0  0  0  0  0  0  0
   -0.6123   -1.4782    0.0000 I   0  0  0  0  0  0  0  0  0  0  0  0
  1  2  1  0  0  0  0
  1  3  1  0  0  0  0
  3  4  1  0  0  0  0
  3  5  1  0  0  0  0
  3  6  1  0  0  0  0
  1  7  1  0  0  0  0
  7  8  1  0  0  0  0
  7  9  1  0  0  0  0
  7 10  1  0  0  0  0
  1 11  1  0  0  0  0
M  END
> <ChemID>
100132

> <source_casrn>
75-30-9

> <CAS>
75-30-9

> <SMILES>
CC(C)I

> <NAME>
2-IODOPROPANE

> <preferred_name>
Propane, 2-iodo-

> <iupac>
2-IODOPROPANE

> <MPID>
24778

> <dsstox_substance_id>
DTXSID4058788

> <Canonical_QSARr>
CC(C)I

> <InChI_Code_QSARr>
InChI=1S/C3H7I/c1-3(2)4/h3H,1-2H3

> <InChI Key_QSARr>
FMKOJHQHASLBPH-UHFFFAOYSA-N

> <Salt_Solvent>
?

> <LogVP>
1.6343

$$$$
100136
  -INDIGO-08031723152D

  6  5  0  0  0  0  0  0  0  0999 V2000
   -0.0000    0.0000    0.0000 C   0  0  0  0  0  0  0  0  0  0  0  0
    0.8000    1.3856    0.0000 H   0  0  0  0  0  0  0  0  0  0  0  0
    0.8000   -1.3856    0.0000 H   0  0  0  0  0  0  0  0  0  0  0  0
   -1.6000    0.0000    0.0000 C   0  0  0  0  0  0  0  0  0  0  0  0
   -2.4000    1.3856    0.0000 Cl  0  0  0  0  0  0  0  0  0  0  0  0
   -2.4000   -1.3856    0.0000 Cl  0  0  0  0  0  0  0  0  0  0  0  0
  1  2  1  0  0  0  0
  1  3  1  0  0  0  0
  1  4  2  0  0  0  0
  4  5  1  0  0  0  0
  4  6  1  0  0  0  0
M  END
> <ChemID>
100136

> <source_casrn>
75-35-4

> <CAS>
75-35-4

> <SMILES>
C=C(Cl)Cl

> <NAME>
1,1-DICHLOROETHENE

> <preferred_name>
1,1-Dichloroethylene

> <iupac>
1,1-dichloroethene

> <MPID>
24782

> <dsstox_substance_id>
DTXSID8021438

> <Canonical_QSARr>
C=C(Cl)Cl

> <InChI_Code_QSARr>
InChI=1S/C2H2Cl2/c1-2(3)4/h1H2

> <InChI Key_QSARr>
LGXVIGDEPROXKC-UHFFFAOYSA-N

> <Salt_Solvent>
?

> <LogVP>
2.7782

$$$$
100140
  -INDIGO-08031723152D

  5  4  0  0  0  0  0  0  0  0999 V2000
    0.0000    0.0000    0.0000 C   0  0  0  0  0  0  0  0  0  0  0  0
    0.8000    1.3856    0.0000 H   0  0  0  0  0  0  0  0  0  0  0  0
   -1.3856    0.8000    0.0000 Cl  0  0  0  0  0  0  0  0  0  0  0  0
    1.3856   -0.8000    0.0000 F   0  0  0  0  0  0  0  0  0  0  0  0
   -0.8000   -1.3856    0.0000 Cl  0  0  0  0  0  0  0  0  0  0  0  0
  1  2  1  0  0  0  0
  1  3  1  0  0  0  0
  1  4  1  0  0  0  0
  1  5  1  0  0  0  0
M  END
> <ChemID>
100140

> <source_casrn>
75-43-4

> <CAS>
75-43-4

> <SMILES>
FC(Cl)Cl

> <NAME>
DICHLOROFLUOROMETHANE

> <preferred_name>
Dichlorofluoromethane

> <iupac>
dichloro(fluoro)methane

> <MPID>
24786

> <dsstox_substance_id>
DTXSID7052498

> <Canonical_QSARr>
FC(Cl)Cl

> <InChI_Code_QSARr>
InChI=1S/CHCl2F/c2-1(3)4/h1H

> <InChI Key_QSARr>
UMNKXPULIDJLSU-UHFFFAOYSA-N

> <Salt_Solvent>
?

> <LogVP>
3.1342

$$$$
100144
  -INDIGO-08031723152D

 13 12  0  0  0  0  0  0  0  0999 V2000
    0.0000    0.0000    0.0000 N   0  0  0  0  0  0  0  0  0  0  0  0
    0.8000    1.3856    0.0000 C   0  0  0  0  0  0  0  0  0  0  0  0
    1.6000    2.7713    0.0000 H   0  0  0  0  0  0  0  0  0  0  0  0
    2.4000    1.3856    0.0000 H   0  0  0  0  0  0  0  0  0  0  0  0
    0.0000    2.7713    0.0000 H   0  0  0  0  0  0  0  0  0  0  0  0
    0.8000   -1.3856    0.0000 C   0  0  0  0  0  0  0  0  0  0  0  0
    1.6000   -2.7713    0.0000 H   0  0  0  0  0  0  0  0  0  0  0  0
    0.0000   -2.7713    0.0000 H   0  0  0  0  0  0  0  0  0  0  0  0
    2.4000   -1.3856    0.0000 H   0  0  0  0  0  0  0  0  0  0  0  0
   -1.6000    0.0000    0.0000 C   0  0  0  0  0  0  0  0  0  0  0  0
   -3.2000    0.0000    0.0000 H   0  0  0  0  0  0  0  0  0  0  0  0
   -2.4000   -1.3856    0.0000 H   0  0  0  0  0  0  0  0  0  0  0  0
   -2.4000    1.3856    0.0000 H   0  0  0  0  0  0  0  0  0  0  0  0
  1  2  1  0  0  0  0
  2  3  1  0  0  0  0
  2  4  1  0  0  0  0
  2  5  1  0  0  0  0
  1  6  1  0  0  0  0
  6  7  1  0  0  0  0
  6  8  1  0  0  0  0
  6  9  1  0  0  0  0
  1 10  1  0  0  0  0
 10 11  1  0  0  0  0
 10 12  1  0  0  0  0
 10 13  1  0  0  0  0
M  END
> <ChemID>
100144

> <source_casrn>
75-50-3

> <CAS>
75-50-3

> <SMILES>
CN(C)C

> <NAME>
TRIMETHYLAMINE

> <preferred_name>
Trimethylamine

> <iupac>
N,N-dimethylmethanamine

> <MPID>
24790

> <dsstox_substance_id>
DTXSID2026238

> <Canonical_QSARr>
CN(C)C

> <InChI_Code_QSARr>
InChI=1S/C3H9N/c1-4(2)3/h1-3H3

> <InChI Key_QSARr>
GETQZCLCWQTVFV-UHFFFAOYSA-N

> <Salt_Solvent>
?

> <LogVP>
3.206

$$$$
100148
  -INDIGO-08031723152D

 10 10  0  0  0  0  0  0  0  0999 V2000
    1.5035   -0.5473    0.0000 C   0  0  0  0  0  0  0  0  0  0  0  0
    3.0070   -1.0945    0.0000 H   0  0  0  0  0  0  0  0  0  0  0  0
    2.7292    0.4812    0.0000 H   0  0  0  0  0  0  0  0  0  0  0  0
    1.7814   -2.1229    0.0000 H   0  0  0  0  0  0  0  0  0  0  0  0
    0.0000    0.0000    0.0000 C   0  0  0  0  0  0  0  0  0  0  0  0
    0.2779    1.5757    0.0000 H   0  0  0  0  0  0  0  0  0  0  0  0
   -1.6000    0.0000    0.0000 C   0  0  0  0  0  0  0  0  0  0  0  0
   -1.8779    1.5757    0.0000 H   0  0  0  0  0  0  0  0  0  0  0  0
   -3.1035   -0.5473    0.0000 H   0  0  0  0  0  0  0  0  0  0  0  0
   -0.8000   -1.3856    0.0000 O   0  0  0  0  0  0  0  0  0  0  0  0
  1  2  1  0  0  0  0
  1  3  1  0  0  0  0
  1  4  1  0  0  0  0
  1  5  1  0  0  0  0
  5  6  1  0  0  0  0
  5  7  1  0  0  0  0
  7  8  1  0  0  0  0
  7  9  1  0  0  0  0
  7 10  1  0  0  0  0
 10  5  1  0  0  0  0
M  END
> <ChemID>
100148

> <source_casrn>
75-56-9

> <CAS>
75-56-9

> <SMILES>
CC1CO1

> <NAME>
PROPYLENE OXIDE

> <preferred_name>
1,2-Propylene oxide

> <iupac>
2-methyloxirane

> <MPID>
24794

> <dsstox_substance_id>
DTXSID5021207

> <Canonical_QSARr>
CC1CO1

> <InChI_Code_QSARr>
InChI=1S/C3H6O/c1-3-2-4-3/h3H,2H2,1H3

> <InChI Key_QSARr>
GOOHAUXETOMSMM-UHFFFAOYSA-N

> <Salt_Solvent>
?

> <LogVP>
2.7308

$$$$
100152
  -INDIGO-08031723152D

 16 15  0  0  0  0  0  0  0  0999 V2000
    0.0000    0.0000    0.0000 C   0  0  0  0  0  0  0  0  0  0  0  0
    0.8000    1.3856    0.0000 C   0  0  0  0  0  0  0  0  0  0  0  0
    1.6000    2.7713    0.0000 H   0  0  0  0  0  0  0  0  0  0  0  0
    2.4000    1.3856    0.0000 H   0  0  0  0  0  0  0  0  0  0  0  0
    0.0000    2.7713    0.0000 H   0  0  0  0  0  0  0  0  0  0  0  0
   -1.3856    0.8000    0.0000 C   0  0  0  0  0  0  0  0  0  0  0  0
   -2.7713    1.6000    0.0000 H   0  0  0  0  0  0  0  0  0  0  0  0
   -2.7713    0.0000    0.0000 H   0  0  0  0  0  0  0  0  0  0  0  0
   -1.3856    2.4000    0.0000 H   0  0  0  0  0  0  0  0  0  0  0  0
   -0.8000   -1.3856    0.0000 C   0  0  0  0  0  0  0  0  0  0  0  0
   -1.6000   -2.7713    0.0000 H   0  0  0  0  0  0  0  0  0  0  0  0
    0.0000   -2.7713    0.0000 H   0  0  0  0  0  0  0  0  0  0  0  0
   -2.4000   -1.3856    0.0000 H   0  0  0  0  0  0  0  0  0  0  0  0
    1.3856   -0.8000    0.0000 N   0  0  0  0  0  0  0  0  0  0  0  0
    1.3856   -2.4000    0.0000 H   0  0  0  0  0  0  0  0  0  0  0  0
    2.7713    0.0000    0.0000 H   0  0  0  0  0  0  0  0  0  0  0  0
  1  2  1  0  0  0  0
  2  3  1  0  0  0  0
  2  4  1  0  0  0  0
  2  5  1  0  0  0  0
  1  6  1  0  0  0  0
  6  7  1  0  0  0  0
  6  8  1  0  0  0  0
  6  9  1  0  0  0  0
  1 10  1  0  0  0  0
 10 11  1  0  0  0  0
 10 12  1  0  0  0  0
 10 13  1  0  0  0  0
  1 14  1  0  0  0  0
 14 15  1  0  0  0  0
 14 16  1  0  0  0  0
M  END
> <ChemID>
100152

> <source_casrn>
75-64-9

> <CAS>
75-64-9

> <SMILES>
CC(C)(C)N

> <NAME>
T-BUTYLAMINE

> <preferred_name>
tert-Butylamine

> <iupac>
2-methylpropan-2-amine

> <MPID>
24798

> <dsstox_substance_id>
DTXSID5024681

> <Canonical_QSARr>
CC(C)(C)N

> <InChI_Code_QSARr>
InChI=1S/C4H11N/c1-4(2,3)5/h5H2,1-3H3

> <InChI Key_QSARr>
YBRBMKDOPFTVDT-UHFFFAOYSA-N

> <Salt_Solvent>
?

> <LogVP>
2.5705

$$$$
100156
  -INDIGO-08031723152D

  5  4  0  0  0  0  0  0  0  0999 V2000
   -0.8000   -1.3856    0.0000 F   0  0  0  0  0  0  0  0  0  0  0  0
    0.0000    0.0000    0.0000 C   0  0  0  0  0  0  0  0  0  0  0  0
    0.8000    1.3856    0.0000 Cl  0  0  0  0  0  0  0  0  0  0  0  0
   -1.3856    0.8000    0.0000 Cl  0  0  0  0  0  0  0  0  0  0  0  0
    1.3856   -0.8000    0.0000 Cl  0  0  0  0  0  0  0  0  0  0  0  0
  1  2  1  0  0  0  0
  2  3  1  0  0  0  0
  2  4  1  0  0  0  0
  2  5  1  0  0  0  0
M  END
> <ChemID>
100156

> <source_casrn>
75-69-4

> <CAS>
75-69-4

> <SMILES>
FC(Cl)(Cl)Cl

> <NAME>
TRICHLOROFLUOROMETHANE

> <preferred_name>
Trichlorofluoromethane

> <iupac>
trichloro(fluoro)methane

> <MPID>
24802

> <dsstox_substance_id>
DTXSID5021384

> <Canonical_QSARr>
FC(Cl)(Cl)Cl

> <InChI_Code_QSARr>
InChI=1S/CCl3F/c2-1(3,4)5

> <InChI Key_QSARr>
CYRMSUTZVYGINF-UHFFFAOYSA-N

> <Salt_Solvent>
?

> <LogVP>
2.9046

$$$$
100161
  -INDIGO-08031723152D

  9  8  0  0  0  0  0  0  0  0999 V2000
    1.6000    0.0000    0.0000 C   0  0  0  0  0  0  0  0  0  0  0  0
    3.2000    0.0000    0.0000 H   0  0  0  0  0  0  0  0  0  0  0  0
    2.4000   -1.3856    0.0000 H   0  0  0  0  0  0  0  0  0  0  0  0
    2.4000    1.3856    0.0000 H   0  0  0  0  0  0  0  0  0  0  0  0
   -0.0000    0.0000    0.0000 S   0  0  0  0  0  0  0  0  0  0  0  0
   -0.0000    1.6000    0.0000 O   0  0  0  0  0  0  0  0  0  0  0  0
   -1.6000   -0.0000    0.0000 O   0  0  0  0  0  0  0  0  0  0  0  0
   -2.4000    1.3856    0.0000 H   0  0  0  0  0  0  0  0  0  0  0  0
   -0.0000   -1.6000    0.0000 O   0  0  0  0  0  0  0  0  0  0  0  0
  1  2  1  0  0  0  0
  1  3  1  0  0  0  0
  1  4  1  0  0  0  0
  1  5  1  0  0  0  0
  5  6  2  0  0  0  0
  5  7  1  0  0  0  0
  7  8  1  0  0  0  0
  5  9  2  0  0  0  0
M  END
> <ChemID>
100161

> <source_casrn>
75-75-2

> <CAS>
75-75-2

> <SMILES>
CS(O)(=O)=O

> <NAME>
METHANESULFONIC ACID

> <preferred_name>
Methanesulfonic acid

> <iupac>
CH4O3S

> <MPID>
24806

> <dsstox_substance_id>
DTXSID4026422

> <Canonical_QSARr>
CS(O)(=O)=O

> <InChI_Code_QSARr>
InChI=1S/CH4O3S/c1-5(2,3)4/h1H3,(H,2,3,4)

> <InChI Key_QSARr>
AFVFQIVMOAPDHO-UHFFFAOYSA-N

> <Salt_Solvent>
?

> <LogVP>
-3.3686

$$$$
100165
  -INDIGO-08031723152D

  8  7  0  0  0  0  0  0  0  0999 V2000
    0.0000    0.0000    0.0000 Si  0  0  0  0  0  0  0  0  0  0  0  0
    1.6000   -0.0000    0.0000 Cl  0  0  0  0  0  0  0  0  0  0  0  0
    0.8000   -1.3856    0.0000 Cl  0  0  0  0  0  0  0  0  0  0  0  0
    0.8000    1.3856    0.0000 Cl  0  0  0  0  0  0  0  0  0  0  0  0
   -1.6000    0.0000    0.0000 C   0  0  0  0  0  0  0  0  0  0  0  0
   -3.2000    0.0000    0.0000 H   0  0  0  0  0  0  0  0  0  0  0  0
   -2.4000   -1.3856    0.0000 H   0  0  0  0  0  0  0  0  0  0  0  0
   -2.4000    1.3856    0.0000 H   0  0  0  0  0  0  0  0  0  0  0  0
  1  2  1  0  0  0  0
  1  3  1  0  0  0  0
  1  4  1  0  0  0  0
  1  5  1  0  0  0  0
  5  6  1  0  0  0  0
  5  7  1  0  0  0  0
  5  8  1  0  0  0  0
M  END
> <ChemID>
100165

> <source_casrn>
75-79-6

> <CAS>
75-79-6

> <SMILES>
C[Si](Cl)(Cl)Cl

> <NAME>
METHYLTRICHLOROSILANE

> <preferred_name>
Methyltrichlorosilane

> <iupac>
trichloro(methyl)silane

> <MPID>
24810

> <dsstox_substance_id>
DTXSID4026426

> <Canonical_QSARr>
C[Si](Cl)(Cl)Cl

> <InChI_Code_QSARr>
InChI=1S/CH3Cl3Si/c1-5(2,3)4/h1H3

> <InChI Key_QSARr>
JLUFWMXJHAVVNN-UHFFFAOYSA-N

> <Salt_Solvent>
?

> <LogVP>
2.2227

$$$$
100169
  -INDIGO-08031723152D

 18 17  0  0  0  0  0  0  0  0999 V2000
    0.8000    1.3856    0.0000 C   0  0  0  0  0  0  0  0  0  0  0  0
    1.6001    2.7713    0.0000 H   0  0  0  0  0  0  0  0  0  0  0  0
    0.0000    2.7713    0.0000 H   0  0  0  0  0  0  0  0  0  0  0  0
    2.4000    1.3856    0.0000 H   0  0  0  0  0  0  0  0  0  0  0  0
    0.0000    0.0000    0.0000 C   0  0  0  0  0  0  0  0  0  0  0  0
   -1.5036    0.5472    0.0000 C   0  0  0  0  0  0  0  0  0  0  0  0
   -1.1572    2.1093    0.0000 H   0  0  0  0  0  0  0  0  0  0  0  0
   -2.3631    1.8967    0.0000 H   0  0  0  0  0  0  0  0  0  0  0  0
   -2.7292   -0.4813    0.0000 C   0  0  0  0  0  0  0  0  0  0  0  0
   -3.9548   -1.5097    0.0000 H   0  0  0  0  0  0  0  0  0  0  0  0
   -4.2327    0.0660    0.0000 H   0  0  0  0  0  0  0  0  0  0  0  0
   -2.4513   -2.0569    0.0000 H   0  0  0  0  0  0  0  0  0  0  0  0
   -0.8000   -1.3856    0.0000 O   0  0  0  0  0  0  0  0  0  0  0  0
    0.0000   -2.7713    0.0000 H   0  0  0  0  0  0  0  0  0  0  0  0
    1.3857   -0.8000    0.0000 C   0  0  0  0  0  0  0  0  0  0  0  0
    2.7713   -1.6000    0.0000 H   0  0  0  0  0  0  0  0  0  0  0  0
    1.3857   -2.4000    0.0000 H   0  0  0  0  0  0  0  0  0  0  0  0
    2.7713    0.0000    0.0000 H   0  0  0  0  0  0  0  0  0  0  0  0
  1  2  1  0  0  0  0
  1  3  1  0  0  0  0
  1  4  1  0  0  0  0
  1  5  1  0  0  0  0
  5  6  1  0  0  0  0
  6  7  1  0  0  0  0
  6  8  1  0  0  0  0
  6  9  1  0  0  0  0
  9 10  1  0  0  0  0
  9 11  1  0  0  0  0
  9 12  1  0  0  0  0
  5 13  1  0  0  0  0
 13 14  1  0  0  0  0
  5 15  1  0  0  0  0
 15 16  1  0  0  0  0
 15 17  1  0  0  0  0
 15 18  1  0  0  0  0
M  END
> <ChemID>
100169

> <source_casrn>
75-85-4

> <CAS>
75-85-4

> <SMILES>
CCC(C)(C)O

> <NAME>
2-METHYL-2-BUTANOL

> <preferred_name>
2-Methyl-2-butanol

> <iupac>
2-methylbutan-2-ol

> <MPID>
24814

> <dsstox_substance_id>
DTXSID0041436

> <Canonical_QSARr>
CCC(C)(C)O

> <InChI_Code_QSARr>
InChI=1S/C5H12O/c1-4-5(2,3)6/h6H,4H2,1-3H3

> <InChI Key_QSARr>
MSXVEPNJUHWQHW-UHFFFAOYSA-N

> <Salt_Solvent>
?

> <LogVP>
1.2227

$$$$
100173
  -INDIGO-08031723152D

 16 15  0  0  0  0  0  0  0  0999 V2000
    0.0000    0.0000    0.0000 C   0  0  0  0  0  0  0  0  0  0  0  0
    1.3857    0.8000    0.0000 C   0  0  0  0  0  0  0  0  0  0  0  0
    2.7713    1.6000    0.0000 H   0  0  0  0  0  0  0  0  0  0  0  0
    1.3857    2.4000    0.0000 H   0  0  0  0  0  0  0  0  0  0  0  0
    2.7713    0.0000    0.0000 H   0  0  0  0  0  0  0  0  0  0  0  0
    0.8000   -1.3856    0.0000 C   0  0  0  0  0  0  0  0  0  0  0  0
    1.6000   -2.7713    0.0000 H   0  0  0  0  0  0  0  0  0  0  0  0
    0.0000   -2.7713    0.0000 H   0  0  0  0  0  0  0  0  0  0  0  0
    2.4000   -1.3856    0.0000 H   0  0  0  0  0  0  0  0  0  0  0  0
   -1.3856   -0.8000    0.0000 C   0  0  0  0  0  0  0  0  0  0  0  0
   -2.7713   -1.6000    0.0000 H   0  0  0  0  0  0  0  0  0  0  0  0
   -2.7713    0.0000    0.0000 H   0  0  0  0  0  0  0  0  0  0  0  0
   -1.3856   -2.4000    0.0000 H   0  0  0  0  0  0  0  0  0  0  0  0
   -0.8000    1.3856    0.0000 O   0  0  0  0  0  0  0  0  0  0  0  0
   -2.4000    1.3856    0.0000 O   0  0  0  0  0  0  0  0  0  0  0  0
   -3.2000    2.7713    0.0000 H   0  0  0  0  0  0  0  0  0  0  0  0
  1  2  1  0  0  0  0
  2  3  1  0  0  0  0
  2  4  1  0  0  0  0
  2  5  1  0  0  0  0
  1  6  1  0  0  0  0
  6  7  1  0  0  0  0
  6  8  1  0  0  0  0
  6  9  1  0  0  0  0
  1 10  1  0  0  0  0
 10 11  1  0  0  0  0
 10 12  1  0  0  0  0
 10 13  1  0  0  0  0
  1 14  1  0  0  0  0
 14 15  1  0  0  0  0
 15 16  1  0  0  0  0
M  END
> <ChemID>
100173

> <source_casrn>
75-91-2

> <CAS>
75-91-2

> <SMILES>
CC(C)(C)OO

> <NAME>
TERT-BUTYLHYDROPEROXIDE

> <preferred_name>
tert-Butyl hydroperoxide

> <iupac>
tert-butyl hydroperoxide

> <MPID>
24818

> <dsstox_substance_id>
DTXSID9024693

> <Canonical_QSARr>
CC(C)(C)OO

> <InChI_Code_QSARr>
InChI=1S/C4H10O2/c1-4(2,3)6-5/h5H,1-3H3

> <InChI Key_QSARr>
CIHOLLKRGTVIJN-UHFFFAOYSA-N

> <Salt_Solvent>
?

> <LogVP>
0.7376

$$$$
100177
  -INDIGO-08031723152D

 11 10  0  0  0  0  0  0  0  0999 V2000
    1.3856    0.8000    0.0000 C   0  0  0  0  0  0  0  0  0  0  0  0
    2.7713    1.6000    0.0000 H   0  0  0  0  0  0  0  0  0  0  0  0
    2.7713    0.0000    0.0000 H   0  0  0  0  0  0  0  0  0  0  0  0
    1.3856    2.4000    0.0000 H   0  0  0  0  0  0  0  0  0  0  0  0
    0.0000    0.0000    0.0000 C   0  0  0  0  0  0  0  0  0  0  0  0
    0.6123   -1.4782    0.0000 Cl  0  0  0  0  0  0  0  0  0  0  0  0
   -0.6123   -1.4782    0.0000 Cl  0  0  0  0  0  0  0  0  0  0  0  0
   -1.3856    0.8000    0.0000 C   0  0  0  0  0  0  0  0  0  0  0  0
   -2.7713    0.0000    0.0000 O   0  0  0  0  0  0  0  0  0  0  0  0
   -4.1569    0.8000    0.0000 H   0  0  0  0  0  0  0  0  0  0  0  0
   -1.3856    2.4000    0.0000 O   0  0  0  0  0  0  0  0  0  0  0  0
  1  2  1  0  0  0  0
  1  3  1  0  0  0  0
  1  4  1  0  0  0  0
  1  5  1  0  0  0  0
  5  6  1  0  0  0  0
  5  7  1  0  0  0  0
  5  8  1  0  0  0  0
  8  9  1  0  0  0  0
  9 10  1  0  0  0  0
  8 11  2  0  0  0  0
M  END
> <ChemID>
100177

> <source_casrn>
75-99-0

> <CAS>
75-99-0

> <SMILES>
CC(Cl)(Cl)C(O)=O

> <NAME>
DALAPON

> <preferred_name>
Dalapon

> <iupac>
2,2-dichloropropanoic acid

> <MPID>
24822

> <dsstox_substance_id>
DTXSID2021575

> <Canonical_QSARr>
CC(Cl)(Cl)C(O)=O

> <InChI_Code_QSARr>
InChI=1S/C3H4Cl2O2/c1-3(4,5)2(6)7/h1H3,(H,6,7)

> <InChI Key_QSARr>
NDUPDOJHUQKPAG-UHFFFAOYSA-N

> <Salt_Solvent>
?

> <LogVP>
-0.821

$$$$
100181
  -INDIGO-08031723152D

  8  7  0  0  0  0  0  0  0  0999 V2000
    1.6000    0.0000    0.0000 C   0  0  0  0  0  0  0  0  0  0  0  0
    2.4000   -1.3856    0.0000 O   0  0  0  0  0  0  0  0  0  0  0  0
    2.4000    1.3856    0.0000 O   0  0  0  0  0  0  0  0  0  0  0  0
    4.0000    1.3856    0.0000 H   0  0  0  0  0  0  0  0  0  0  0  0
   -0.0000    0.0000    0.0000 C   0  0  0  0  0  0  0  0  0  0  0  0
   -1.6000    0.0000    0.0000 F   0  0  0  0  0  0  0  0  0  0  0  0
   -0.8000    1.3856    0.0000 F   0  0  0  0  0  0  0  0  0  0  0  0
   -0.8000   -1.3856    0.0000 F   0  0  0  0  0  0  0  0  0  0  0  0
  1  2  2  0  0  0  0
  1  3  1  0  0  0  0
  3  4  1  0  0  0  0
  1  5  1  0  0  0  0
  5  6  1  0  0  0  0
  5  7  1  0  0  0  0
  5  8  1  0  0  0  0
M  END
> <ChemID>
100181

> <source_casrn>
76-05-1

> <CAS>
76-05-1

> <SMILES>
OC(=O)C(F)(F)F

> <NAME>
TRIFLUOROACETIC ACID

> <preferred_name>
Acetic acid, trifluoro-

> <iupac>
trifluoroacetic acid

> <MPID>
24826

> <dsstox_substance_id>
DTXSID9041578

> <Canonical_QSARr>
OC(=O)C(F)(F)F

> <InChI_Code_QSARr>
InChI=1S/C2HF3O2/c3-2(4,5)1(6)7/h(H,6,7)

> <InChI Key_QSARr>
DTQVDTLACAAQTR-UHFFFAOYSA-N

> <Salt_Solvent>
?

> <LogVP>
2.0414

$$$$
100185
  -INDIGO-08031723152D

  8  7  0  0  0  0  0  0  0  0999 V2000
    0.0000    0.0000    0.0000 C   0  0  0  0  0  0  0  0  0  0  0  0
    1.6000    0.0000    0.0000 C   0  0  0  0  0  0  0  0  0  0  0  0
    3.2000    0.0000    0.0000 F   0  0  0  0  0  0  0  0  0  0  0  0
    2.4000   -1.3856    0.0000 Cl  0  0  0  0  0  0  0  0  0  0  0  0
    2.4000    1.3856    0.0000 Cl  0  0  0  0  0  0  0  0  0  0  0  0
   -1.6000   -0.0000    0.0000 F   0  0  0  0  0  0  0  0  0  0  0  0
   -0.8000   -1.3856    0.0000 F   0  0  0  0  0  0  0  0  0  0  0  0
   -0.8000    1.3856    0.0000 Cl  0  0  0  0  0  0  0  0  0  0  0  0
  1  2  1  0  0  0  0
  2  3  1  0  0  0  0
  2  4  1  0  0  0  0
  2  5  1  0  0  0  0
  1  6  1  0  0  0  0
  1  7  1  0  0  0  0
  1  8  1  0  0  0  0
M  END
> <ChemID>
100185

> <source_casrn>
76-13-1

> <CAS>
76-13-1

> <SMILES>
FC(F)(Cl)C(F)(Cl)Cl

> <NAME>
1,1,2-TRICHLOROTRIFLUOROETHANE

> <preferred_name>
1,1,2-Trichloro-1,2,2-trifluoroethane

> <iupac>
1,1,2-trichloro-1,2,2-trifluoroethane

> <MPID>
24830

> <dsstox_substance_id>
DTXSID6021377

> <Canonical_QSARr>
FC(F)(Cl)C(F)(Cl)Cl

> <InChI_Code_QSARr>
InChI=1S/C2Cl3F3/c3-1(4,6)2(5,7)8

> <InChI Key_QSARr>
AJDIZQLSFPQPEY-UHFFFAOYSA-N

> <Salt_Solvent>
?

> <LogVP>
2.5593

$$$$
100189
  -INDIGO-08031723152D

 11 10  0  0  0  0  0  0  0  0999 V2000
    0.0000    0.0000    0.0000 C   0  0  0  0  0  0  0  0  0  0  0  0
    1.3856    0.8000    0.0000 C   0  0  0  0  0  0  0  0  0  0  0  0
    2.7713    1.6000    0.0000 F   0  0  0  0  0  0  0  0  0  0  0  0
    2.7713    0.0000    0.0000 F   0  0  0  0  0  0  0  0  0  0  0  0
    1.3856    2.4000    0.0000 F   0  0  0  0  0  0  0  0  0  0  0  0
   -1.3856    0.8000    0.0000 C   0  0  0  0  0  0  0  0  0  0  0  0
   -2.7713    1.6000    0.0000 F   0  0  0  0  0  0  0  0  0  0  0  0
   -2.7713    0.0000    0.0000 F   0  0  0  0  0  0  0  0  0  0  0  0
   -1.3856    2.4000    0.0000 F   0  0  0  0  0  0  0  0  0  0  0  0
   -0.6123   -1.4782    0.0000 F   0  0  0  0  0  0  0  0  0  0  0  0
    0.6123   -1.4782    0.0000 F   0  0  0  0  0  0  0  0  0  0  0  0
  1  2  1  0  0  0  0
  2  3  1  0  0  0  0
  2  4  1  0  0  0  0
  2  5  1  0  0  0  0
  1  6  1  0  0  0  0
  6  7  1  0  0  0  0
  6  8  1  0  0  0  0
  6  9  1  0  0  0  0
  1 10  1  0  0  0  0
  1 11  1  0  0  0  0
M  END
> <ChemID>
100189

> <source_casrn>
76-19-7

> <CAS>
76-19-7

> <SMILES>
FC(F)(C(F)(F)F)C(F)(F)F

> <NAME>
OCTAFLUOROPROPANE

> <preferred_name>
Perflutren

> <iupac>
octafluoropropane

> <MPID>
24834

> <dsstox_substance_id>
DTXSID9052503

> <Canonical_QSARr>
FC(F)(C(F)(F)F)C(F)(F)F

> <InChI_Code_QSARr>
InChI=1S/C3F8/c4-1(5,2(6,7)8)3(9,10)11

> <InChI Key_QSARr>
QYSGYZVSCZSLHT-UHFFFAOYSA-N

> <Salt_Solvent>
?

> <LogVP>
3.8216

$$$$
100193
  -INDIGO-08031723152D

 34 35  0  0  0  0  0  0  0  0999 V2000
   -0.0000    0.0000    0.0000 C   0  0  0  0  0  0  0  0  0  0  0  0
    1.5767    0.2722    0.0000 C   0  0  0  0  0  0  0  0  0  0  0  0
    2.4380   -0.2558    0.0000 H   0  0  0  0  0  0  0  0  0  0  0  0
    2.8085    1.2933    0.0000 O   0  0  0  0  0  0  0  0  0  0  0  0
    4.3088    0.7372    0.0000 C   0  0  0  0  0  0  0  0  0  0  0  0
    4.5772   -0.8401    0.0000 O   0  0  0  0  0  0  0  0  0  0  0  0
    5.5404    1.7583    0.0000 C   0  0  0  0  0  0  0  0  0  0  0  0
    6.7722    2.7795    0.0000 H   0  0  0  0  0  0  0  0  0  0  0  0
    7.0407    1.2022    0.0000 H   0  0  0  0  0  0  0  0  0  0  0  0
    5.2719    3.3356    0.0000 H   0  0  0  0  0  0  0  0  0  0  0  0
    0.3465    1.1467    0.0000 C   0  0  0  0  0  0  0  0  0  0  0  0
   -0.1911    2.6536    0.0000 H   0  0  0  0  0  0  0  0  0  0  0  0
    1.6224    2.1121    0.0000 H   0  0  0  0  0  0  0  0  0  0  0  0
   -1.3606    1.0822    0.0000 C   0  0  0  0  0  0  0  0  0  0  0  0
   -2.9503    1.2640    0.0000 H   0  0  0  0  0  0  0  0  0  0  0  0
   -1.7739    2.5465    0.0000 C   0  0  0  0  0  0  0  0  0  0  0  0
   -3.3588    2.7657    0.0000 C   0  0  0  0  0  0  0  0  0  0  0  0
   -3.9616    4.2479    0.0000 H   0  0  0  0  0  0  0  0  0  0  0  0
   -4.9438    2.9848    0.0000 H   0  0  0  0  0  0  0  0  0  0  0  0
   -2.3766    4.0287    0.0000 H   0  0  0  0  0  0  0  0  0  0  0  0
   -0.9378    3.9107    0.0000 C   0  0  0  0  0  0  0  0  0  0  0  0
   -0.1017    5.2748    0.0000 H   0  0  0  0  0  0  0  0  0  0  0  0
   -1.7011    5.3169    0.0000 H   0  0  0  0  0  0  0  0  0  0  0  0
    0.6616    3.8686    0.0000 H   0  0  0  0  0  0  0  0  0  0  0  0
   -2.1363   -0.3280    0.0000 C   0  0  0  0  0  0  0  0  0  0  0  0
   -2.9818   -1.6864    0.0000 H   0  0  0  0  0  0  0  0  0  0  0  0
   -3.5170    0.4806    0.0000 H   0  0  0  0  0  0  0  0  0  0  0  0
   -0.7643   -1.2339    0.0000 C   0  0  0  0  0  0  0  0  0  0  0  0
    0.2135   -2.5004    0.0000 H   0  0  0  0  0  0  0  0  0  0  0  0
   -1.6329   -2.5776    0.0000 H   0  0  0  0  0  0  0  0  0  0  0  0
    1.1116   -1.1507    0.0000 C   0  0  0  0  0  0  0  0  0  0  0  0
    2.2233   -2.3015    0.0000 H   0  0  0  0  0  0  0  0  0  0  0  0
    1.2235   -2.7468    0.0000 H   0  0  0  0  0  0  0  0  0  0  0  0
    2.1214   -1.1778    0.0000 H   0  0  0  0  0  0  0  0  0  0  0  0
  1  2  1  0  0  0  0
  2  3  1  0  0  0  0
  2  4  1  0  0  0  0
  4  5  1  0  0  0  0
  5  6  2  0  0  0  0
  5  7  1  0  0  0  0
  7  8  1  0  0  0  0
  7  9  1  0  0  0  0
  7 10  1  0  0  0  0
  2 11  1  0  0  0  0
 11 12  1  0  0  0  0
 11 13  1  0  0  0  0
 11 14  1  0  0  0  0
 14 15  1  0  0  0  0
 14 16  1  0  0  0  0
 16  1  1  0  0  0  0
 16 17  1  0  0  0  0
 17 18  1  0  0  0  0
 17 19  1  0  0  0  0
 17 20  1  0  0  0  0
 16 21  1  0  0  0  0
 21 22  1  0  0  0  0
 21 23  1  0  0  0  0
 21 24  1  0  0  0  0
 14 25  1  0  0  0  0
 25 26  1  0  0  0  0
 25 27  1  0  0  0  0
 25 28  1  0  0  0  0
 28  1  1  0  0  0  0
 28 29  1  0  0  0  0
 28 30  1  0  0  0  0
  1 31  1  0  0  0  0
 31 32  1  0  0  0  0
 31 33  1  0  0  0  0
 31 34  1  0  0  0  0
M  END
> <ChemID>
100193

> <source_casrn>
76-49-3

> <CAS>
76-49-3

> <SMILES>
CC1(C)C2C[C@@H](OC(C)=O)C1(C)CC2

> <NAME>
BORNYL ACETATE

> <preferred_name>
Bornyl acetate

> <iupac>
(2R)-1,7,7-trimethylbicyclo[2.2.1]hept-2-yl acetate

> <MPID>
24838

> <dsstox_substance_id>
DTXSID7041675

> <Canonical_QSARr>
CC1(C)C2CC(OC(C)=O)C1(C)CC2

> <InChI_Code_QSARr>
InChI=1S/C12H20O2/c1-8(13)14-10-7-9-5-6-12(10,4)11(9,2)3/h9-10H,5-7H2,1-4H3

> <InChI Key_QSARr>
KGEKLUUHTZCSIP-UHFFFAOYSA-N

> <Salt_Solvent>
?

> <LogVP>
-0.6421

$$$$
100198
  -INDIGO-08031723152D

 17 16  0  0  0  0  0  0  0  0999 V2000
    2.7712   -1.6000    0.0000 C   0  0  0  0  0  0  0  0  0  0  0  0
    4.1569   -2.4000    0.0000 H   0  0  0  0  0  0  0  0  0  0  0  0
    1.3857   -0.8000    0.0000 C   0  0  0  0  0  0  0  0  0  0  0  0
   -0.0000   -0.0000    0.0000 C   0  0  0  0  0  0  0  0  0  0  0  0
   -1.3857    0.8000    0.0000 O   0  0  0  0  0  0  0  0  0  0  0  0
   -1.3857    2.4000    0.0000 H   0  0  0  0  0  0  0  0  0  0  0  0
    0.8001    1.3857    0.0000 C   0  0  0  0  0  0  0  0  0  0  0  0
    1.6000    2.7713    0.0000 H   0  0  0  0  0  0  0  0  0  0  0  0
    2.4000    1.3857    0.0000 H   0  0  0  0  0  0  0  0  0  0  0  0
   -0.0000    2.7713    0.0000 H   0  0  0  0  0  0  0  0  0  0  0  0
   -0.8000   -1.3857    0.0000 C   0  0  0  0  0  0  0  0  0  0  0  0
    0.4693   -2.3596    0.0000 H   0  0  0  0  0  0  0  0  0  0  0  0
   -0.5911   -2.9720    0.0000 H   0  0  0  0  0  0  0  0  0  0  0  0
   -2.4000   -1.3857    0.0000 C   0  0  0  0  0  0  0  0  0  0  0  0
   -4.0000   -1.3857    0.0000 H   0  0  0  0  0  0  0  0  0  0  0  0
   -3.2001   -2.7713    0.0000 H   0  0  0  0  0  0  0  0  0  0  0  0
   -3.2001   -0.0000    0.0000 H   0  0  0  0  0  0  0  0  0  0  0  0
  1  2  1  0  0  0  0
  1  3  3  0  0  0  0
  3  4  1  0  0  0  0
  4  5  1  0  0  0  0
  5  6  1  0  0  0  0
  4  7  1  0  0  0  0
  7  8  1  0  0  0  0
  7  9  1  0  0  0  0
  7 10  1  0  0  0  0
  4 11  1  0  0  0  0
 11 12  1  0  0  0  0
 11 13  1  0  0  0  0
 11 14  1  0  0  0  0
 14 15  1  0  0  0  0
 14 16  1  0  0  0  0
 14 17  1  0  0  0  0
M  END
> <ChemID>
100198

> <source_casrn>
77-75-8

> <CAS>
77-75-8

> <SMILES>
CCC(C)(O)C#C

> <NAME>
METHYL PENTYNOL

> <preferred_name>
3-Methyl-1-pentyn-3-ol

> <iupac>
3-methylpent-1-yn-3-ol

> <MPID>
24842

> <dsstox_substance_id>
DTXSID5021756

> <Canonical_QSARr>
CCC(C)(O)C#C

> <InChI_Code_QSARr>
InChI=1S/C6H10O/c1-4-6(3,7)5-2/h1,7H,5H2,2-3H3

> <InChI Key_QSARr>
QXLPXWSKPNOQLE-UHFFFAOYSA-N

> <Salt_Solvent>
?

> <LogVP>
0.7202

$$$$
100202
  -INDIGO-08031723152D

 21 20  0  0  0  0  0  0  0  0999 V2000
    0.0000   -1.6000    0.0000 O   0  0  0  0  0  0  0  0  0  0  0  0
    1.3856   -2.4000    0.0000 H   0  0  0  0  0  0  0  0  0  0  0  0
    0.0000    0.0000    0.0000 C   0  0  0  0  0  0  0  0  0  0  0  0
    1.6000    0.0000    0.0000 C   0  0  0  0  0  0  0  0  0  0  0  0
    1.8088    1.5863    0.0000 H   0  0  0  0  0  0  0  0  0  0  0  0
    2.8694    0.9740    0.0000 H   0  0  0  0  0  0  0  0  0  0  0  0
    2.8257   -1.0284    0.0000 C   0  0  0  0  0  0  0  0  0  0  0  0
    2.5479   -2.6042    0.0000 O   0  0  0  0  0  0  0  0  0  0  0  0
    4.3291   -0.4812    0.0000 O   0  0  0  0  0  0  0  0  0  0  0  0
    5.5549   -1.5097    0.0000 H   0  0  0  0  0  0  0  0  0  0  0  0
   -1.5757   -0.2779    0.0000 C   0  0  0  0  0  0  0  0  0  0  0  0
   -2.0567    1.2481    0.0000 H   0  0  0  0  0  0  0  0  0  0  0  0
   -2.9949    0.4609    0.0000 H   0  0  0  0  0  0  0  0  0  0  0  0
   -2.1229   -1.7814    0.0000 C   0  0  0  0  0  0  0  0  0  0  0  0
   -1.0944   -3.0070    0.0000 O   0  0  0  0  0  0  0  0  0  0  0  0
   -3.6986   -2.0592    0.0000 O   0  0  0  0  0  0  0  0  0  0  0  0
   -4.2458   -3.5627    0.0000 H   0  0  0  0  0  0  0  0  0  0  0  0
    0.0000    1.6000    0.0000 C   0  0  0  0  0  0  0  0  0  0  0  0
    1.2257    2.6285    0.0000 O   0  0  0  0  0  0  0  0  0  0  0  0
   -1.3856    2.4000    0.0000 O   0  0  0  0  0  0  0  0  0  0  0  0
   -1.3856    4.0000    0.0000 H   0  0  0  0  0  0  0  0  0  0  0  0
  1  2  1  0  0  0  0
  1  3  1  0  0  0  0
  3  4  1  0  0  0  0
  4  5  1  0  0  0  0
  4  6  1  0  0  0  0
  4  7  1  0  0  0  0
  7  8  2  0  0  0  0
  7  9  1  0  0  0  0
  9 10  1  0  0  0  0
  3 11  1  0  0  0  0
 11 12  1  0  0  0  0
 11 13  1  0  0  0  0
 11 14  1  0  0  0  0
 14 15  2  0  0  0  0
 14 16  1  0  0  0  0
 16 17  1  0  0  0  0
  3 18  1  0  0  0  0
 18 19  2  0  0  0  0
 18 20  1  0  0  0  0
 20 21  1  0  0  0  0
M  END
> <ChemID>
100202

> <source_casrn>
77-92-9

> <CAS>
77-92-9

> <SMILES>
OC(=O)C(O)(CC(O)=O)CC(O)=O

> <NAME>
CITRIC ACID

> <preferred_name>
Citric acid

> <iupac>
2-hydroxypropane-1,2,3-tricarboxylic acid

> <MPID>
24846

> <dsstox_substance_id>
DTXSID3020332

> <Canonical_QSARr>
OC(=O)C(O)(CC(O)=O)CC(O)=O

> <InChI_Code_QSARr>
InChI=1S/C6H8O7/c7-3(8)1-6(13,5(11)12)2-4(9)10/h13H,1-2H2,(H,7,8)(H,9,10)(H,11,12)

> <InChI Key_QSARr>
KRKNYBCHXYNGOX-UHFFFAOYSA-N

> <Salt_Solvent>
?

> <LogVP>
-7.7799

$$$$
100208
  -INDIGO-08031723152D

 29 28  0  0  0  0  0  0  0  0999 V2000
    2.9230   -3.1671    0.0000 N   0  0  0  0  0  0  0  0  0  0  0  0
    4.4986   -3.4448    0.0000 O   0  0  0  0  0  0  0  0  0  0  0  0
    1.8945   -4.3926    0.0000 O   0  0  0  0  0  0  0  0  0  0  0  0
    2.3757   -1.6635    0.0000 O   0  0  0  0  0  0  0  0  0  0  0  0
    0.8001   -1.3856    0.0000 C   0  0  0  0  0  0  0  0  0  0  0  0
    0.5911   -2.9720    0.0000 H   0  0  0  0  0  0  0  0  0  0  0  0
   -0.4693   -2.3597    0.0000 H   0  0  0  0  0  0  0  0  0  0  0  0
    0.0001   -0.0001    0.0000 C   0  0  0  0  0  0  0  0  0  0  0  0
   -0.8001    1.3856    0.0000 C   0  0  0  0  0  0  0  0  0  0  0  0
   -0.5911    2.9720    0.0000 H   0  0  0  0  0  0  0  0  0  0  0  0
    0.4693    2.3597    0.0000 H   0  0  0  0  0  0  0  0  0  0  0  0
   -2.3757    1.6635    0.0000 O   0  0  0  0  0  0  0  0  0  0  0  0
   -2.9230    3.1671    0.0000 N   0  0  0  0  0  0  0  0  0  0  0  0
   -4.4986    3.4448    0.0000 O   0  0  0  0  0  0  0  0  0  0  0  0
   -1.8945    4.3926    0.0000 O   0  0  0  0  0  0  0  0  0  0  0  0
    1.3856    0.8001    0.0000 C   0  0  0  0  0  0  0  0  0  0  0  0
    2.9720    0.5911    0.0000 H   0  0  0  0  0  0  0  0  0  0  0  0
    2.3597   -0.4693    0.0000 H   0  0  0  0  0  0  0  0  0  0  0  0
    1.6635    2.3757    0.0000 O   0  0  0  0  0  0  0  0  0  0  0  0
    3.1671    2.9230    0.0000 N   0  0  0  0  0  0  0  0  0  0  0  0
    3.4448    4.4986    0.0000 O   0  0  0  0  0  0  0  0  0  0  0  0
    4.3926    1.8945    0.0000 O   0  0  0  0  0  0  0  0  0  0  0  0
   -1.3856   -0.8001    0.0000 C   0  0  0  0  0  0  0  0  0  0  0  0
   -2.9720   -0.5911    0.0000 H   0  0  0  0  0  0  0  0  0  0  0  0
   -2.3597    0.4693    0.0000 H   0  0  0  0  0  0  0  0  0  0  0  0
   -1.6635   -2.3757    0.0000 O   0  0  0  0  0  0  0  0  0  0  0  0
   -3.1671   -2.9230    0.0000 N   0  0  0  0  0  0  0  0  0  0  0  0
   -3.4448   -4.4986    0.0000 O   0  0  0  0  0  0  0  0  0  0  0  0
   -4.3926   -1.8945    0.0000 O   0  0  0  0  0  0  0  0  0  0  0  0
  1  2  1  0  0  0  0
  1  3  2  0  0  0  0
  1  4  1  0  0  0  0
  4  5  1  0  0  0  0
  5  6  1  0  0  0  0
  5  7  1  0  0  0  0
  5  8  1  0  0  0  0
  8  9  1  0  0  0  0
  9 10  1  0  0  0  0
  9 11  1  0  0  0  0
  9 12  1  0  0  0  0
 12 13  1  0  0  0  0
 13 14  1  0  0  0  0
 13 15  2  0  0  0  0
  8 16  1  0  0  0  0
 16 17  1  0  0  0  0
 16 18  1  0  0  0  0
 16 19  1  0  0  0  0
 19 20  1  0  0  0  0
 20 21  1  0  0  0  0
 20 22  2  0  0  0  0
  8 23  1  0  0  0  0
 23 24  1  0  0  0  0
 23 25  1  0  0  0  0
 23 26  1  0  0  0  0
 26 27  1  0  0  0  0
 27 28  1  0  0  0  0
 27 29  2  0  0  0  0
M  CHG  8   1   1   2  -1  13   1  14  -1  20   1  21  -1  27   1  28  -1
M  END
> <ChemID>
100208

> <source_casrn>
78-11-5

> <CAS>
78-11-5

> <SMILES>
[O-][N+](=O)OCC(CO[N+]([O-])=O)(CO[N+]([O-])=O)CO[N+]([O-])=O

> <NAME>
PENTAERYTHRITOL TETRANITRATE

> <preferred_name>
Pentaerythritol tetranitrate

> <iupac>
3-(nitrooxy)-2,2-bis[(nitrooxy)methyl]propyl nitrate

> <MPID>
24850

> <dsstox_substance_id>
DTXSID2023430

> <Canonical_QSARr>
[O-][N+](=O)OCC(CO[N+]([O-])=O)(CO[N+]([O-])=O)CO[N+]([O-])=O

> <InChI_Code_QSARr>
InChI=1S/C5H8N4O12/c10-6(11)18-1-5(2-19-7(12)13,3-20-8(14)15)4-21-9(16)17/h1-4H2

> <InChI Key_QSARr>
TZRXHJWUDPFEEY-UHFFFAOYSA-N

> <Salt_Solvent>
?

> <LogVP>
-8.2636

$$$$
100213
  -INDIGO-08031723152D

 80 79  0  0  0  0  0  0  0  0999 V2000
    4.7513   -0.5557    0.0000 O   0  0  0  0  0  0  0  0  0  0  0  0
    4.2043    0.9478    0.0000 P   0  0  0  0  0  0  0  0  0  0  0  0
    5.7798    0.6699    0.0000 O   0  0  0  0  0  0  0  0  0  0  0  0
    6.3272   -0.8336    0.0000 C   0  0  0  0  0  0  0  0  0  0  0  0
    5.8460   -2.3595    0.0000 H   0  0  0  0  0  0  0  0  0  0  0  0
    4.9078   -1.5722    0.0000 H   0  0  0  0  0  0  0  0  0  0  0  0
    7.9027   -1.1114    0.0000 C   0  0  0  0  0  0  0  0  0  0  0  0
    8.1805    0.4643    0.0000 H   0  0  0  0  0  0  0  0  0  0  0  0
    9.4785   -1.3891    0.0000 C   0  0  0  0  0  0  0  0  0  0  0  0
    9.4085    0.2094    0.0000 H   0  0  0  0  0  0  0  0  0  0  0  0
   10.5593   -0.2095    0.0000 H   0  0  0  0  0  0  0  0  0  0  0  0
   10.7041   -2.4176    0.0000 C   0  0  0  0  0  0  0  0  0  0  0  0
   11.0506   -3.9797    0.0000 H   0  0  0  0  0  0  0  0  0  0  0  0
    9.8444   -3.7672    0.0000 H   0  0  0  0  0  0  0  0  0  0  0  0
   12.2077   -1.8705    0.0000 C   0  0  0  0  0  0  0  0  0  0  0  0
   11.8615   -0.3084    0.0000 H   0  0  0  0  0  0  0  0  0  0  0  0
   13.0674   -0.5210    0.0000 H   0  0  0  0  0  0  0  0  0  0  0  0
   13.4332   -2.8988    0.0000 C   0  0  0  0  0  0  0  0  0  0  0  0
   14.6590   -3.9274    0.0000 H   0  0  0  0  0  0  0  0  0  0  0  0
   14.9368   -2.3517    0.0000 H   0  0  0  0  0  0  0  0  0  0  0  0
   13.1554   -4.4746    0.0000 H   0  0  0  0  0  0  0  0  0  0  0  0
    7.6249   -2.6869    0.0000 C   0  0  0  0  0  0  0  0  0  0  0  0
    9.2112   -2.8958    0.0000 H   0  0  0  0  0  0  0  0  0  0  0  0
    8.5989   -3.9563    0.0000 H   0  0  0  0  0  0  0  0  0  0  0  0
    6.2394   -3.4870    0.0000 C   0  0  0  0  0  0  0  0  0  0  0  0
    6.2394   -5.0870    0.0000 H   0  0  0  0  0  0  0  0  0  0  0  0
    4.8536   -4.2870    0.0000 H   0  0  0  0  0  0  0  0  0  0  0  0
    7.6249   -4.2870    0.0000 H   0  0  0  0  0  0  0  0  0  0  0  0
    5.2325    2.1734    0.0000 O   0  0  0  0  0  0  0  0  0  0  0  0
    4.6855    3.6769    0.0000 C   0  0  0  0  0  0  0  0  0  0  0  0
    3.1232    3.3308    0.0000 H   0  0  0  0  0  0  0  0  0  0  0  0
    3.3361    4.5367    0.0000 H   0  0  0  0  0  0  0  0  0  0  0  0
    5.7139    4.9026    0.0000 C   0  0  0  0  0  0  0  0  0  0  0  0
    6.7424    3.6769    0.0000 H   0  0  0  0  0  0  0  0  0  0  0  0
    6.9395    5.9312    0.0000 C   0  0  0  0  0  0  0  0  0  0  0  0
    8.4656    5.4500    0.0000 H   0  0  0  0  0  0  0  0  0  0  0  0
    7.6784    4.5119    0.0000 H   0  0  0  0  0  0  0  0  0  0  0  0
    7.7396    7.3168    0.0000 C   0  0  0  0  0  0  0  0  0  0  0  0
    6.4700    8.2907    0.0000 H   0  0  0  0  0  0  0  0  0  0  0  0
    7.5305    8.9032    0.0000 H   0  0  0  0  0  0  0  0  0  0  0  0
    9.3395    7.3168    0.0000 C   0  0  0  0  0  0  0  0  0  0  0  0
   10.6087    6.3429    0.0000 H   0  0  0  0  0  0  0  0  0  0  0  0
    9.5482    5.7304    0.0000 H   0  0  0  0  0  0  0  0  0  0  0  0
   10.1396    8.7024    0.0000 C   0  0  0  0  0  0  0  0  0  0  0  0
   10.9394   10.0881    0.0000 H   0  0  0  0  0  0  0  0  0  0  0  0
   11.7395    8.7024    0.0000 H   0  0  0  0  0  0  0  0  0  0  0  0
    9.3395   10.0881    0.0000 H   0  0  0  0  0  0  0  0  0  0  0  0
    4.6855    6.1284    0.0000 C   0  0  0  0  0  0  0  0  0  0  0  0
    4.6154    7.7269    0.0000 H   0  0  0  0  0  0  0  0  0  0  0  0
    5.7662    7.3080    0.0000 H   0  0  0  0  0  0  0  0  0  0  0  0
    3.1096    5.8506    0.0000 C   0  0  0  0  0  0  0  0  0  0  0  0
    2.0811    7.0762    0.0000 H   0  0  0  0  0  0  0  0  0  0  0  0
    3.6570    7.3541    0.0000 H   0  0  0  0  0  0  0  0  0  0  0  0
    1.5341    5.5727    0.0000 H   0  0  0  0  0  0  0  0  0  0  0  0
    2.6285    1.2257    0.0000 O   0  0  0  0  0  0  0  0  0  0  0  0
    1.6000    0.0000    0.0000 C   0  0  0  0  0  0  0  0  0  0  0  0
    2.8695   -0.9741    0.0000 H   0  0  0  0  0  0  0  0  0  0  0  0
    1.8087   -1.5864    0.0000 H   0  0  0  0  0  0  0  0  0  0  0  0
    0.0001    0.0000    0.0000 C   0  0  0  0  0  0  0  0  0  0  0  0
   -1.5999    0.0000    0.0000 H   0  0  0  0  0  0  0  0  0  0  0  0
   -0.5473   -1.5035    0.0000 C   0  0  0  0  0  0  0  0  0  0  0  0
    0.8721   -2.2424    0.0000 H   0  0  0  0  0  0  0  0  0  0  0  0
   -0.0662   -3.0294    0.0000 H   0  0  0  0  0  0  0  0  0  0  0  0
   -2.1228   -1.7813    0.0000 C   0  0  0  0  0  0  0  0  0  0  0  0
   -3.5422   -1.0427    0.0000 H   0  0  0  0  0  0  0  0  0  0  0  0
   -2.6040   -0.2554    0.0000 H   0  0  0  0  0  0  0  0  0  0  0  0
   -2.6702   -3.2848    0.0000 C   0  0  0  0  0  0  0  0  0  0  0  0
   -1.2508   -4.0237    0.0000 H   0  0  0  0  0  0  0  0  0  0  0  0
   -2.1890   -4.8108    0.0000 H   0  0  0  0  0  0  0  0  0  0  0  0
   -4.2457   -3.5627    0.0000 C   0  0  0  0  0  0  0  0  0  0  0  0
   -5.8215   -3.8406    0.0000 H   0  0  0  0  0  0  0  0  0  0  0  0
   -4.7930   -5.0662    0.0000 H   0  0  0  0  0  0  0  0  0  0  0  0
   -5.2742   -2.3371    0.0000 H   0  0  0  0  0  0  0  0  0  0  0  0
    0.0001    1.6001    0.0000 C   0  0  0  0  0  0  0  0  0  0  0  0
    0.9741    2.8693    0.0000 H   0  0  0  0  0  0  0  0  0  0  0  0
    1.5863    1.8087    0.0000 H   0  0  0  0  0  0  0  0  0  0  0  0
   -1.3857    2.3999    0.0000 C   0  0  0  0  0  0  0  0  0  0  0  0
   -2.7712    3.1999    0.0000 H   0  0  0  0  0  0  0  0  0  0  0  0
   -1.3857    4.0000    0.0000 H   0  0  0  0  0  0  0  0  0  0  0  0
   -2.7712    1.6001    0.0000 H   0  0  0  0  0  0  0  0  0  0  0  0
  1  2  2  0  0  0  0
  2  3  1  0  0  0  0
  3  4  1  0  0  0  0
  4  5  1  0  0  0  0
  4  6  1  0  0  0  0
  4  7  1  0  0  0  0
  7  8  1  0  0  0  0
  7  9  1  0  0  0  0
  9 10  1  0  0  0  0
  9 11  1  0  0  0  0
  9 12  1  0  0  0  0
 12 13  1  0  0  0  0
 12 14  1  0  0  0  0
 12 15  1  0  0  0  0
 15 16  1  0  0  0  0
 15 17  1  0  0  0  0
 15 18  1  0  0  0  0
 18 19  1  0  0  0  0
 18 20  1  0  0  0  0
 18 21  1  0  0  0  0
  7 22  1  0  0  0  0
 22 23  1  0  0  0  0
 22 24  1  0  0  0  0
 22 25  1  0  0  0  0
 25 26  1  0  0  0  0
 25 27  1  0  0  0  0
 25 28  1  0  0  0  0
  2 29  1  0  0  0  0
 29 30  1  0  0  0  0
 30 31  1  0  0  0  0
 30 32  1  0  0  0  0
 30 33  1  0  0  0  0
 33 34  1  0  0  0  0
 33 35  1  0  0  0  0
 35 36  1  0  0  0  0
 35 37  1  0  0  0  0
 35 38  1  0  0  0  0
 38 39  1  0  0  0  0
 38 40  1  0  0  0  0
 38 41  1  0  0  0  0
 41 42  1  0  0  0  0
 41 43  1  0  0  0  0
 41 44  1  0  0  0  0
 44 45  1  0  0  0  0
 44 46  1  0  0  0  0
 44 47  1  0  0  0  0
 33 48  1  0  0  0  0
 48 49  1  0  0  0  0
 48 50  1  0  0  0  0
 48 51  1  0  0  0  0
 51 52  1  0  0  0  0
 51 53  1  0  0  0  0
 51 54  1  0  0  0  0
  2 55  1  0  0  0  0
 55 56  1  0  0  0  0
 56 57  1  0  0  0  0
 56 58  1  0  0  0  0
 56 59  1  0  0  0  0
 59 60  1  0  0  0  0
 59 61  1  0  0  0  0
 61 62  1  0  0  0  0
 61 63  1  0  0  0  0
 61 64  1  0  0  0  0
 64 65  1  0  0  0  0
 64 66  1  0  0  0  0
 64 67  1  0  0  0  0
 67 68  1  0  0  0  0
 67 69  1  0  0  0  0
 67 70  1  0  0  0  0
 70 71  1  0  0  0  0
 70 72  1  0  0  0  0
 70 73  1  0  0  0  0
 59 74  1  0  0  0  0
 74 75  1  0  0  0  0
 74 76  1  0  0  0  0
 74 77  1  0  0  0  0
 77 78  1  0  0  0  0
 77 79  1  0  0  0  0
 77 80  1  0  0  0  0
M  END
> <ChemID>
100213

> <source_casrn>
78-42-2

> <CAS>
78-42-2

> <SMILES>
CCCCC(COP(=O)(OCC(CCCC)CC)OCC(CCCC)CC)CC

> <NAME>
TRIS(2-ETHYLHEXYL) PHOSPHATE

> <preferred_name>
Tris(2-ethylhexyl) phosphate

> <iupac>
tris(2-ethylhexyl) phosphate

> <MPID>
24854

> <dsstox_substance_id>
DTXSID0021414

> <Canonical_QSARr>
CCCCC(COP(=O)(OCC(CCCC)CC)OCC(CCCC)CC)CC

> <InChI_Code_QSARr>
InChI=1S/C24H51O4P/c1-7-13-16-22(10-4)19-26-29(25,27-20-23(11-5)17-14-8-2)28-21-24(12-6)18-15-9-3/h22-24H,7-21H2,1-6H3

> <InChI Key_QSARr>
GTVWRXDRKAHEAD-UHFFFAOYSA-N

> <Salt_Solvent>
?

> <LogVP>
-7.0835

$$$$
100217
  -INDIGO-08031723152D

 25 24  0  0  0  0  0  0  0  0999 V2000
    0.0001    0.0000    0.0000 Si  0  0  0  0  0  0  0  0  0  0  0  0
    0.0001    1.6000    0.0000 C   0  0  0  0  0  0  0  0  0  0  0  0
    0.0001    3.2000    0.0000 H   0  0  0  0  0  0  0  0  0  0  0  0
    1.3856    2.4000    0.0000 H   0  0  0  0  0  0  0  0  0  0  0  0
   -1.3856    2.4000    0.0000 H   0  0  0  0  0  0  0  0  0  0  0  0
    1.5999    0.0000    0.0000 O   0  0  0  0  0  0  0  0  0  0  0  0
    2.9856   -0.8000    0.0000 C   0  0  0  0  0  0  0  0  0  0  0  0
    3.5979   -2.2782    0.0000 H   0  0  0  0  0  0  0  0  0  0  0  0
    2.3733   -2.2782    0.0000 H   0  0  0  0  0  0  0  0  0  0  0  0
    4.3713    0.0000    0.0000 C   0  0  0  0  0  0  0  0  0  0  0  0
    5.7569    0.8000    0.0000 H   0  0  0  0  0  0  0  0  0  0  0  0
    4.3713    1.6000    0.0000 H   0  0  0  0  0  0  0  0  0  0  0  0
    5.7569   -0.8000    0.0000 H   0  0  0  0  0  0  0  0  0  0  0  0
    0.0001   -1.6000    0.0000 C   0  0  0  0  0  0  0  0  0  0  0  0
   -0.0001   -3.2000    0.0000 H   0  0  0  0  0  0  0  0  0  0  0  0
    1.3856   -2.4000    0.0000 H   0  0  0  0  0  0  0  0  0  0  0  0
   -1.3856   -2.4000    0.0000 H   0  0  0  0  0  0  0  0  0  0  0  0
   -1.5999    0.0000    0.0000 O   0  0  0  0  0  0  0  0  0  0  0  0
   -2.9856    0.8000    0.0000 C   0  0  0  0  0  0  0  0  0  0  0  0
   -3.5979    2.2782    0.0000 H   0  0  0  0  0  0  0  0  0  0  0  0
   -2.3733    2.2782    0.0000 H   0  0  0  0  0  0  0  0  0  0  0  0
   -4.3713    0.0000    0.0000 C   0  0  0  0  0  0  0  0  0  0  0  0
   -5.7569   -0.8000    0.0000 H   0  0  0  0  0  0  0  0  0  0  0  0
   -4.3713   -1.6000    0.0000 H   0  0  0  0  0  0  0  0  0  0  0  0
   -5.7569    0.8000    0.0000 H   0  0  0  0  0  0  0  0  0  0  0  0
  1  2  1  0  0  0  0
  2  3  1  0  0  0  0
  2  4  1  0  0  0  0
  2  5  1  0  0  0  0
  1  6  1  0  0  0  0
  6  7  1  0  0  0  0
  7  8  1  0  0  0  0
  7  9  1  0  0  0  0
  7 10  1  0  0  0  0
 10 11  1  0  0  0  0
 10 12  1  0  0  0  0
 10 13  1  0  0  0  0
  1 14  1  0  0  0  0
 14 15  1  0  0  0  0
 14 16  1  0  0  0  0
 14 17  1  0  0  0  0
  1 18  1  0  0  0  0
 18 19  1  0  0  0  0
 19 20  1  0  0  0  0
 19 21  1  0  0  0  0
 19 22  1  0  0  0  0
 22 23  1  0  0  0  0
 22 24  1  0  0  0  0
 22 25  1  0  0  0  0
M  END
> <ChemID>
100217

> <source_casrn>
78-62-6

> <CAS>
78-62-6

> <SMILES>
C[Si](C)(OCC)OCC

> <NAME>
DIMETHYL DIETHOXYSILANE

> <preferred_name>
Diethoxy(dimethyl)silane

> <iupac>
diethoxy(dimethyl)silane

> <MPID>
24858

> <dsstox_substance_id>
DTXSID6052538

> <Canonical_QSARr>
C[Si](C)(OCC)OCC

> <InChI_Code_QSARr>
InChI=1S/C6H16O2Si/c1-5-7-9(3,4)8-6-2/h5-6H2,1-4H3

> <InChI Key_QSARr>
YYLGKUPAFFKGRQ-UHFFFAOYSA-N

> <Salt_Solvent>
?

> <LogVP>
1.301

$$$$
100221
  -INDIGO-08031723152D

 14 13  0  0  0  0  0  0  0  0999 V2000
    1.3856   -0.8000    0.0000 C   0  0  0  0  0  0  0  0  0  0  0  0
    2.7713   -1.6000    0.0000 H   0  0  0  0  0  0  0  0  0  0  0  0
    2.7713    0.0000    0.0000 H   0  0  0  0  0  0  0  0  0  0  0  0
    1.3856   -2.4000    0.0000 H   0  0  0  0  0  0  0  0  0  0  0  0
    0.0000    0.0000    0.0000 C   0  0  0  0  0  0  0  0  0  0  0  0
    0.6123    1.4782    0.0000 H   0  0  0  0  0  0  0  0  0  0  0  0
   -0.6123    1.4782    0.0000 Br  0  0  0  0  0  0  0  0  0  0  0  0
   -1.3856   -0.8000    0.0000 C   0  0  0  0  0  0  0  0  0  0  0  0
   -1.9980   -2.2782    0.0000 H   0  0  0  0  0  0  0  0  0  0  0  0
   -0.7733   -2.2782    0.0000 H   0  0  0  0  0  0  0  0  0  0  0  0
   -2.7713    0.0000    0.0000 C   0  0  0  0  0  0  0  0  0  0  0  0
   -4.1569    0.8000    0.0000 H   0  0  0  0  0  0  0  0  0  0  0  0
   -4.1569   -0.8000    0.0000 H   0  0  0  0  0  0  0  0  0  0  0  0
   -2.7713    1.6000    0.0000 H   0  0  0  0  0  0  0  0  0  0  0  0
  1  2  1  0  0  0  0
  1  3  1  0  0  0  0
  1  4  1  0  0  0  0
  1  5  1  0  0  0  0
  5  6  1  0  0  0  0
  5  7  1  0  0  0  0
  5  8  1  0  0  0  0
  8  9  1  0  0  0  0
  8 10  1  0  0  0  0
  8 11  1  0  0  0  0
 11 12  1  0  0  0  0
 11 13  1  0  0  0  0
 11 14  1  0  0  0  0
M  END
> <ChemID>
100221

> <source_casrn>
78-76-2

> <CAS>
78-76-2

> <SMILES>
CCC(C)Br

> <NAME>
2-BROMOBUTANE

> <preferred_name>
2-Bromobutane

> <iupac>
2-bromobutane

> <MPID>
24862

> <dsstox_substance_id>
DTXSID7021499

> <Canonical_QSARr>
CCC(C)Br

> <InChI_Code_QSARr>
InChI=1S/C4H9Br/c1-3-4(2)5/h4H,3H2,1-2H3

> <InChI Key_QSARr>
UPSXAPQYNGXVBF-UHFFFAOYSA-N

> <Salt_Solvent>
?

> <LogVP>
1.7559

$$$$
100225
  -INDIGO-08031723152D

 12 11  0  0  0  0  0  0  0  0999 V2000
    0.0000    1.6000    0.0000 C   0  0  0  0  0  0  0  0  0  0  0  0
    0.0000    0.0000    0.0000 C   0  0  0  0  0  0  0  0  0  0  0  0
    0.0000   -1.6000    0.0000 H   0  0  0  0  0  0  0  0  0  0  0  0
   -1.6000    0.0000    0.0000 C   0  0  0  0  0  0  0  0  0  0  0  0
   -3.2000    0.0000    0.0000 H   0  0  0  0  0  0  0  0  0  0  0  0
   -2.4000   -1.3856    0.0000 H   0  0  0  0  0  0  0  0  0  0  0  0
   -2.4000    1.3856    0.0000 H   0  0  0  0  0  0  0  0  0  0  0  0
    1.6000    0.0000    0.0000 C   0  0  0  0  0  0  0  0  0  0  0  0
    3.2000    0.0000    0.0000 H   0  0  0  0  0  0  0  0  0  0  0  0
    2.4000   -1.3856    0.0000 H   0  0  0  0  0  0  0  0  0  0  0  0
    2.4000    1.3856    0.0000 H   0  0  0  0  0  0  0  0  0  0  0  0
   -0.0000    3.2000    0.0000 N   0  0  0  0  0  0  0  0  0  0  0  0
  1  2  1  0  0  0  0
  2  3  1  0  0  0  0
  2  4  1  0  0  0  0
  4  5  1  0  0  0  0
  4  6  1  0  0  0  0
  4  7  1  0  0  0  0
  2  8  1  0  0  0  0
  8  9  1  0  0  0  0
  8 10  1  0  0  0  0
  8 11  1  0  0  0  0
  1 12  3  0  0  0  0
M  END
> <ChemID>
100225

> <source_casrn>
78-82-0

> <CAS>
78-82-0

> <SMILES>
CC(C)C#N

> <NAME>
2-METHYLPROPANENITRILE

> <preferred_name>
2-Methylpropanenitrile

> <iupac>
2-methylpropanenitrile

> <MPID>
24866

> <dsstox_substance_id>
DTXSID5026461

> <Canonical_QSARr>
CC(C)C#N

> <InChI_Code_QSARr>
InChI=1S/C4H7N/c1-4(2)3-5/h4H,1-2H3

> <InChI Key_QSARr>
LRDFRRGEGBBSRN-UHFFFAOYSA-N

> <Salt_Solvent>
?

> <LogVP>
1.5145

$$$$
100229
  -INDIGO-08031723152D

 14 13  0  0  0  0  0  0  0  0999 V2000
   -0.6123    1.4782    0.0000 Cl  0  0  0  0  0  0  0  0  0  0  0  0
    0.0000    0.0000    0.0000 C   0  0  0  0  0  0  0  0  0  0  0  0
    0.6123    1.4782    0.0000 H   0  0  0  0  0  0  0  0  0  0  0  0
    1.3856   -0.8000    0.0000 C   0  0  0  0  0  0  0  0  0  0  0  0
    2.7713   -1.6000    0.0000 H   0  0  0  0  0  0  0  0  0  0  0  0
    2.7713    0.0000    0.0000 H   0  0  0  0  0  0  0  0  0  0  0  0
    1.3856   -2.4000    0.0000 H   0  0  0  0  0  0  0  0  0  0  0  0
   -1.3856   -0.8000    0.0000 C   0  0  0  0  0  0  0  0  0  0  0  0
   -1.9980   -2.2782    0.0000 H   0  0  0  0  0  0  0  0  0  0  0  0
   -0.7733   -2.2782    0.0000 H   0  0  0  0  0  0  0  0  0  0  0  0
   -2.7713    0.0000    0.0000 C   0  0  0  0  0  0  0  0  0  0  0  0
   -4.1569    0.8000    0.0000 H   0  0  0  0  0  0  0  0  0  0  0  0
   -4.1569   -0.8000    0.0000 H   0  0  0  0  0  0  0  0  0  0  0  0
   -2.7713    1.6000    0.0000 H   0  0  0  0  0  0  0  0  0  0  0  0
  1  2  1  0  0  0  0
  2  3  1  0  0  0  0
  2  4  1  0  0  0  0
  4  5  1  0  0  0  0
  4  6  1  0  0  0  0
  4  7  1  0  0  0  0
  2  8  1  0  0  0  0
  8  9  1  0  0  0  0
  8 10  1  0  0  0  0
  8 11  1  0  0  0  0
 11 12  1  0  0  0  0
 11 13  1  0  0  0  0
 11 14  1  0  0  0  0
M  END
> <ChemID>
100229

> <source_casrn>
78-86-4

> <CAS>
78-86-4

> <SMILES>
CCC(C)Cl

> <NAME>
2-CHLOROBUTANE

> <preferred_name>
2-Chlorobutane

> <iupac>
2-chlorobutane

> <MPID>
24870

> <dsstox_substance_id>
DTXSID9023966

> <Canonical_QSARr>
CCC(C)Cl

> <InChI_Code_QSARr>
InChI=1S/C4H9Cl/c1-3-4(2)5/h4H,3H2,1-2H3

> <InChI Key_QSARr>
BSPCSKHALVHRSR-UHFFFAOYSA-N

> <Salt_Solvent>
?

> <LogVP>
2.1949

$$$$
100233
  -INDIGO-08031723152D

 15 14  0  0  0  0  0  0  0  0999 V2000
    2.7292   -0.4813    0.0000 N   0  0  0  0  0  0  0  0  0  0  0  0
    4.2327    0.0660    0.0000 H   0  0  0  0  0  0  0  0  0  0  0  0
    2.4513   -2.0569    0.0000 H   0  0  0  0  0  0  0  0  0  0  0  0
    1.5036    0.5472    0.0000 C   0  0  0  0  0  0  0  0  0  0  0  0
    1.1572    2.1093    0.0000 H   0  0  0  0  0  0  0  0  0  0  0  0
    2.3631    1.8967    0.0000 H   0  0  0  0  0  0  0  0  0  0  0  0
   -0.0000    0.0000    0.0000 C   0  0  0  0  0  0  0  0  0  0  0  0
    0.8000   -1.3856    0.0000 H   0  0  0  0  0  0  0  0  0  0  0  0
   -0.8000    1.3856    0.0000 N   0  0  0  0  0  0  0  0  0  0  0  0
   -0.0000    2.7713    0.0000 H   0  0  0  0  0  0  0  0  0  0  0  0
   -2.4000    1.3856    0.0000 H   0  0  0  0  0  0  0  0  0  0  0  0
   -1.3857   -0.8000    0.0000 C   0  0  0  0  0  0  0  0  0  0  0  0
   -2.7713   -1.6000    0.0000 H   0  0  0  0  0  0  0  0  0  0  0  0
   -1.3857   -2.4000    0.0000 H   0  0  0  0  0  0  0  0  0  0  0  0
   -2.7713    0.0000    0.0000 H   0  0  0  0  0  0  0  0  0  0  0  0
  1  2  1  0  0  0  0
  1  3  1  0  0  0  0
  1  4  1  0  0  0  0
  4  5  1  0  0  0  0
  4  6  1  0  0  0  0
  4  7  1  0  0  0  0
  7  8  1  0  0  0  0
  7  9  1  0  0  0  0
  9 10  1  0  0  0  0
  9 11  1  0  0  0  0
  7 12  1  0  0  0  0
 12 13  1  0  0  0  0
 12 14  1  0  0  0  0
 12 15  1  0  0  0  0
M  END
> <ChemID>
100233

> <source_casrn>
78-90-0

> <CAS>
78-90-0

> <SMILES>
CC(N)CN

> <NAME>
1,2-DIAMINOPROPANE

> <preferred_name>
1,2-Diaminopropane

> <iupac>
propane-1,2-diamine

> <MPID>
24874

> <dsstox_substance_id>
DTXSID4021761

> <Canonical_QSARr>
CC(N)CN

> <InChI_Code_QSARr>
InChI=1S/C3H10N2/c1-3(5)2-4/h3H,2,4-5H2,1H3

> <InChI Key_QSARr>
AOHJOMMDDJHIJH-UHFFFAOYSA-N

> <Salt_Solvent>
?

> <LogVP>
1.0256

$$$$
100237
  -INDIGO-08031723152D

 14 13  0  0  0  0  0  0  0  0999 V2000
    0.8000    1.3856    0.0000 O   0  0  0  0  0  0  0  0  0  0  0  0
    2.4000    1.3856    0.0000 H   0  0  0  0  0  0  0  0  0  0  0  0
    0.0000    0.0000    0.0000 C   0  0  0  0  0  0  0  0  0  0  0  0
   -0.8000   -1.3856    0.0000 H   0  0  0  0  0  0  0  0  0  0  0  0
    1.3856   -0.8000    0.0000 C   0  0  0  0  0  0  0  0  0  0  0  0
    2.7713   -1.6000    0.0000 H   0  0  0  0  0  0  0  0  0  0  0  0
    2.7713    0.0000    0.0000 H   0  0  0  0  0  0  0  0  0  0  0  0
    1.3856   -2.4000    0.0000 H   0  0  0  0  0  0  0  0  0  0  0  0
   -1.3856    0.8000    0.0000 C   0  0  0  0  0  0  0  0  0  0  0  0
   -0.7733    2.2782    0.0000 H   0  0  0  0  0  0  0  0  0  0  0  0
   -1.9980    2.2782    0.0000 H   0  0  0  0  0  0  0  0  0  0  0  0
   -2.7713    0.0000    0.0000 N   0  0  0  0  0  0  0  0  0  0  0  0
   -4.1569    0.8000    0.0000 H   0  0  0  0  0  0  0  0  0  0  0  0
   -2.7713   -1.6000    0.0000 H   0  0  0  0  0  0  0  0  0  0  0  0
  1  2  1  0  0  0  0
  1  3  1  0  0  0  0
  3  4  1  0  0  0  0
  3  5  1  0  0  0  0
  5  6  1  0  0  0  0
  5  7  1  0  0  0  0
  5  8  1  0  0  0  0
  3  9  1  0  0  0  0
  9 10  1  0  0  0  0
  9 11  1  0  0  0  0
  9 12  1  0  0  0  0
 12 13  1  0  0  0  0
 12 14  1  0  0  0  0
M  END
> <ChemID>
100237

> <source_casrn>
78-96-6

> <CAS>
78-96-6

> <SMILES>
CC(O)CN

> <NAME>
1-AMINO-2-PROPANOL

> <preferred_name>
1-Amino-2-propanol

> <iupac>
1-aminopropan-2-ol

> <MPID>
24878

> <dsstox_substance_id>
DTXSID9021764

> <Canonical_QSARr>
CC(O)CN

> <InChI_Code_QSARr>
InChI=1S/C3H9NO/c1-3(5)2-4/h3,5H,2,4H2,1H3

> <InChI Key_QSARr>
HXKKHQJGJAFBHI-UHFFFAOYSA-N

> <Salt_Solvent>
?

> <LogVP>
-0.3279

$$$$
100241
  -INDIGO-08031723152D

  6  5  0  0  0  0  0  0  0  0999 V2000
   -0.8000   -1.3856    0.0000 Cl  0  0  0  0  0  0  0  0  0  0  0  0
    0.0000    0.0000    0.0000 C   0  0  0  0  0  0  0  0  0  0  0  0
    1.6000    0.0000    0.0000 C   0  0  0  0  0  0  0  0  0  0  0  0
    2.4000    1.3856    0.0000 H   0  0  0  0  0  0  0  0  0  0  0  0
    2.4000   -1.3856    0.0000 Cl  0  0  0  0  0  0  0  0  0  0  0  0
   -0.8000    1.3856    0.0000 Cl  0  0  0  0  0  0  0  0  0  0  0  0
  1  2  1  0  0  0  0
  2  3  2  0  0  0  0
  3  4  1  0  0  0  0
  3  5  1  0  0  0  0
  2  6  1  0  0  0  0
M  END
> <ChemID>
100241

> <source_casrn>
79-01-6

> <CAS>
79-01-6

> <SMILES>
ClC=C(Cl)Cl

> <NAME>
TRICHLOROETHENE

> <preferred_name>
Trichloroethylene

> <iupac>
1,1,2-trichloroethene

> <MPID>
24882

> <dsstox_substance_id>
DTXSID0021383

> <Canonical_QSARr>
ClC=C(Cl)Cl

> <InChI_Code_QSARr>
InChI=1S/C2HCl3/c3-1-2(4)5/h1H

> <InChI Key_QSARr>
XSTXAVWGXDQKEL-UHFFFAOYSA-N

> <Salt_Solvent>
?

> <LogVP>
1.8388

$$$$
100245
  -INDIGO-08031723152D

 10  9  0  0  0  0  0  0  0  0999 V2000
    1.3856   -0.8000    0.0000 N   0  0  0  0  0  0  0  0  0  0  0  0
    2.7713    0.0000    0.0000 H   0  0  0  0  0  0  0  0  0  0  0  0
    1.3856   -2.4000    0.0000 H   0  0  0  0  0  0  0  0  0  0  0  0
    0.0000    0.0000    0.0000 C   0  0  0  0  0  0  0  0  0  0  0  0
    0.0000    1.6000    0.0000 O   0  0  0  0  0  0  0  0  0  0  0  0
   -1.3856   -0.8000    0.0000 C   0  0  0  0  0  0  0  0  0  0  0  0
   -1.3856   -2.4000    0.0000 H   0  0  0  0  0  0  0  0  0  0  0  0
   -2.7713    0.0000    0.0000 C   0  0  0  0  0  0  0  0  0  0  0  0
   -4.1569   -0.8000    0.0000 H   0  0  0  0  0  0  0  0  0  0  0  0
   -2.7713    1.6000    0.0000 H   0  0  0  0  0  0  0  0  0  0  0  0
  1  2  1  0  0  0  0
  1  3  1  0  0  0  0
  1  4  1  0  0  0  0
  4  5  2  0  0  0  0
  4  6  1  0  0  0  0
  6  7  1  0  0  0  0
  6  8  2  0  0  0  0
  8  9  1  0  0  0  0
  8 10  1  0  0  0  0
M  END
> <ChemID>
100245

> <source_casrn>
79-06-1

> <CAS>
79-06-1

> <SMILES>
C=CC(N)=O

> <NAME>
ACRYLAMIDE

> <preferred_name>
Acrylamide

> <iupac>
prop-2-enamide

> <MPID>
24886

> <dsstox_substance_id>
DTXSID5020027

> <Canonical_QSARr>
C=CC(N)=O

> <InChI_Code_QSARr>
InChI=1S/C3H5NO/c1-2-3(4)5/h2H,1H2,(H2,4,5)

> <InChI Key_QSARr>
HRPVXLWXLXDGHG-UHFFFAOYSA-N

> <Salt_Solvent>
?

> <LogVP>
-2.1549

$$$$
100249
  -INDIGO-08031723152D

  8  7  0  0  0  0  0  0  0  0999 V2000
    2.4000    1.3856    0.0000 O   0  0  0  0  0  0  0  0  0  0  0  0
    4.0000    1.3856    0.0000 H   0  0  0  0  0  0  0  0  0  0  0  0
    1.6000    0.0000    0.0000 C   0  0  0  0  0  0  0  0  0  0  0  0
    2.4000   -1.3856    0.0000 O   0  0  0  0  0  0  0  0  0  0  0  0
   -0.0000    0.0000    0.0000 C   0  0  0  0  0  0  0  0  0  0  0  0
   -1.6000    0.0000    0.0000 H   0  0  0  0  0  0  0  0  0  0  0  0
   -0.8000    1.3856    0.0000 H   0  0  0  0  0  0  0  0  0  0  0  0
   -0.8000   -1.3856    0.0000 Cl  0  0  0  0  0  0  0  0  0  0  0  0
  1  2  1  0  0  0  0
  1  3  1  0  0  0  0
  3  4  2  0  0  0  0
  3  5  1  0  0  0  0
  5  6  1  0  0  0  0
  5  7  1  0  0  0  0
  5  8  1  0  0  0  0
M  END
> <ChemID>
100249

> <source_casrn>
79-11-8

> <CAS>
79-11-8

> <SMILES>
OC(=O)CCl

> <NAME>
CHLOROACETIC ACID

> <preferred_name>
Chloroacetic acid

> <iupac>
chloroacetic acid

> <MPID>
24890

> <dsstox_substance_id>
DTXSID4020901

> <Canonical_QSARr>
OC(=O)CCl

> <InChI_Code_QSARr>
InChI=1S/C2H3ClO2/c3-1-2(4)5/h1H2,(H,4,5)

> <InChI Key_QSARr>
FOCAUTSVDIKZOP-UHFFFAOYSA-N

> <Salt_Solvent>
?

> <LogVP>
-1.1871

$$$$
100253
  -INDIGO-08031723152D

  9  8  0  0  0  0  0  0  0  0999 V2000
    1.3856   -2.4000    0.0000 O   0  0  0  0  0  0  0  0  0  0  0  0
    1.3856   -0.8000    0.0000 C   0  0  0  0  0  0  0  0  0  0  0  0
    2.7713    0.0000    0.0000 O   0  0  0  0  0  0  0  0  0  0  0  0
    4.1569   -0.8000    0.0000 O   0  0  0  0  0  0  0  0  0  0  0  0
    5.5426    0.0000    0.0000 H   0  0  0  0  0  0  0  0  0  0  0  0
    0.0000    0.0000    0.0000 C   0  0  0  0  0  0  0  0  0  0  0  0
   -1.3856    0.8000    0.0000 H   0  0  0  0  0  0  0  0  0  0  0  0
    0.0000    1.6000    0.0000 H   0  0  0  0  0  0  0  0  0  0  0  0
   -1.3856   -0.8000    0.0000 H   0  0  0  0  0  0  0  0  0  0  0  0
  1  2  2  0  0  0  0
  2  3  1  0  0  0  0
  3  4  1  0  0  0  0
  4  5  1  0  0  0  0
  2  6  1  0  0  0  0
  6  7  1  0  0  0  0
  6  8  1  0  0  0  0
  6  9  1  0  0  0  0
M  END
> <ChemID>
100253

> <source_casrn>
79-21-0

> <CAS>
79-21-0

> <SMILES>
CC(=O)OO

> <NAME>
PEROXYACETIC ACID

> <preferred_name>
Peracetic acid

> <iupac>
ethaneperoxoic acid

> <MPID>
24894

> <dsstox_substance_id>
DTXSID1025853

> <Canonical_QSARr>
CC(=O)OO

> <InChI_Code_QSARr>
InChI=1S/C2H4O3/c1-2(3)5-4/h4H,1H3

> <InChI Key_QSARr>
KFSLWBXXFJQRDL-UHFFFAOYSA-N

> <Salt_Solvent>
?

> <LogVP>
1.1602

$$$$
100257
  -INDIGO-08031723152D

 14 13  0  0  0  0  0  0  0  0999 V2000
    1.3856   -0.8000    0.0000 C   0  0  0  0  0  0  0  0  0  0  0  0
    2.7713   -1.6000    0.0000 H   0  0  0  0  0  0  0  0  0  0  0  0
    1.3856   -2.4000    0.0000 H   0  0  0  0  0  0  0  0  0  0  0  0
    2.7713    0.0000    0.0000 H   0  0  0  0  0  0  0  0  0  0  0  0
    0.0000    0.0000    0.0000 C   0  0  0  0  0  0  0  0  0  0  0  0
   -0.8000   -1.3856    0.0000 H   0  0  0  0  0  0  0  0  0  0  0  0
   -1.3857    0.8000    0.0000 C   0  0  0  0  0  0  0  0  0  0  0  0
   -2.7713    1.6000    0.0000 H   0  0  0  0  0  0  0  0  0  0  0  0
   -2.7713    0.0000    0.0000 H   0  0  0  0  0  0  0  0  0  0  0  0
   -1.3857    2.4000    0.0000 H   0  0  0  0  0  0  0  0  0  0  0  0
    0.8000    1.3856    0.0000 C   0  0  0  0  0  0  0  0  0  0  0  0
    2.4000    1.3856    0.0000 O   0  0  0  0  0  0  0  0  0  0  0  0
    3.2000    2.7713    0.0000 H   0  0  0  0  0  0  0  0  0  0  0  0
    0.0000    2.7713    0.0000 O   0  0  0  0  0  0  0  0  0  0  0  0
  1  2  1  0  0  0  0
  1  3  1  0  0  0  0
  1  4  1  0  0  0  0
  1  5  1  0  0  0  0
  5  6  1  0  0  0  0
  5  7  1  0  0  0  0
  7  8  1  0  0  0  0
  7  9  1  0  0  0  0
  7 10  1  0  0  0  0
  5 11  1  0  0  0  0
 11 12  1  0  0  0  0
 12 13  1  0  0  0  0
 11 14  2  0  0  0  0
M  END
> <ChemID>
100257

> <source_casrn>
79-31-2

> <CAS>
79-31-2

> <SMILES>
CC(C)C(O)=O

> <NAME>
ISOBUTYRIC ACID

> <preferred_name>
2-Methylpropanoic acid

> <iupac>
2-methylpropanoic acid

> <MPID>
24898

> <dsstox_substance_id>
DTXSID4021636

> <Canonical_QSARr>
CC(C)C(O)=O

> <InChI_Code_QSARr>
InChI=1S/C4H8O2/c1-3(2)4(5)6/h3H,1-2H3,(H,5,6)

> <InChI Key_QSARr>
KQNPFQTWMSNSAP-UHFFFAOYSA-N

> <Salt_Solvent>
?

> <LogVP>
0.2577

$$$$
100261
  -INDIGO-08031723152D

 13 12  0  0  0  0  0  0  0  0999 V2000
   -1.3856    0.8000    0.0000 C   0  0  0  0  0  0  0  0  0  0  0  0
    0.0000    0.0000    0.0000 C   0  0  0  0  0  0  0  0  0  0  0  0
    0.0000   -1.6000    0.0000 C   0  0  0  0  0  0  0  0  0  0  0  0
   -1.3856   -2.4000    0.0000 H   0  0  0  0  0  0  0  0  0  0  0  0
    1.3856   -2.4000    0.0000 H   0  0  0  0  0  0  0  0  0  0  0  0
    1.3856    0.8000    0.0000 C   0  0  0  0  0  0  0  0  0  0  0  0
    2.7713    1.6000    0.0000 H   0  0  0  0  0  0  0  0  0  0  0  0
    2.7713    0.0000    0.0000 H   0  0  0  0  0  0  0  0  0  0  0  0
    1.3856    2.4000    0.0000 H   0  0  0  0  0  0  0  0  0  0  0  0
   -2.7713   -0.0000    0.0000 N   0  0  0  0  0  0  0  0  0  0  0  0
   -4.1569    0.8000    0.0000 H   0  0  0  0  0  0  0  0  0  0  0  0
   -2.7713   -1.6000    0.0000 H   0  0  0  0  0  0  0  0  0  0  0  0
   -1.3856    2.4000    0.0000 O   0  0  0  0  0  0  0  0  0  0  0  0
  1  2  1  0  0  0  0
  2  3  2  0  0  0  0
  3  4  1  0  0  0  0
  3  5  1  0  0  0  0
  2  6  1  0  0  0  0
  6  7  1  0  0  0  0
  6  8  1  0  0  0  0
  6  9  1  0  0  0  0
  1 10  1  0  0  0  0
 10 11  1  0  0  0  0
 10 12  1  0  0  0  0
  1 13  2  0  0  0  0
M  END
> <ChemID>
100261

> <source_casrn>
79-39-0

> <CAS>
79-39-0

> <SMILES>
CC(=C)C(N)=O

> <NAME>
Methacrylamide

> <preferred_name>
Methacrylamide

> <iupac>
2-methylprop-2-enamide

> <MPID>
24902

> <dsstox_substance_id>
DTXSID8029600

> <Canonical_QSARr>
CC(=C)C(N)=O

> <InChI_Code_QSARr>
InChI=1S/C4H7NO/c1-3(2)4(5)6/h1H2,2H3,(H2,5,6)

> <InChI Key_QSARr>
FQPSGWSUVKBHSU-UHFFFAOYSA-N

> <Salt_Solvent>
?

> <LogVP>
-1.0711

$$$$
100265
  -INDIGO-08031723152D

 12 11  0  0  0  0  0  0  0  0999 V2000
   -1.3856   -2.4000    0.0000 O   0  0  0  0  0  0  0  0  0  0  0  0
   -0.0000   -1.6000    0.0000 C   0  0  0  0  0  0  0  0  0  0  0  0
    0.0000    0.0000    0.0000 N   0  0  0  0  0  0  0  0  0  0  0  0
    1.3856    0.8000    0.0000 C   0  0  0  0  0  0  0  0  0  0  0  0
    2.7713    1.6000    0.0000 H   0  0  0  0  0  0  0  0  0  0  0  0
    2.7713    0.0000    0.0000 H   0  0  0  0  0  0  0  0  0  0  0  0
    1.3856    2.4000    0.0000 H   0  0  0  0  0  0  0  0  0  0  0  0
   -1.3856    0.8000    0.0000 C   0  0  0  0  0  0  0  0  0  0  0  0
   -2.7713    1.6000    0.0000 H   0  0  0  0  0  0  0  0  0  0  0  0
   -2.7713    0.0000    0.0000 H   0  0  0  0  0  0  0  0  0  0  0  0
   -1.3856    2.4000    0.0000 H   0  0  0  0  0  0  0  0  0  0  0  0
    1.3856   -2.4000    0.0000 Cl  0  0  0  0  0  0  0  0  0  0  0  0
  1  2  2  0  0  0  0
  2  3  1  0  0  0  0
  3  4  1  0  0  0  0
  4  5  1  0  0  0  0
  4  6  1  0  0  0  0
  4  7  1  0  0  0  0
  3  8  1  0  0  0  0
  8  9  1  0  0  0  0
  8 10  1  0  0  0  0
  8 11  1  0  0  0  0
  2 12  1  0  0  0  0
M  END
> <ChemID>
100265

> <source_casrn>
79-44-7

> <CAS>
79-44-7

> <SMILES>
CN(C)C(=O)Cl

> <NAME>
DIMETHYLCARBAMYL CHLORIDE

> <preferred_name>
Dimethylcarbamoyl chloride

> <iupac>
dimethylcarbamic chloride

> <MPID>
24906

> <dsstox_substance_id>
DTXSID1020512

> <Canonical_QSARr>
CN(C)C(=O)Cl

> <InChI_Code_QSARr>
InChI=1S/C3H6ClNO/c1-5(2)3(4)6/h1-2H3

> <InChI Key_QSARr>
YIIMEMSDCNDGTB-UHFFFAOYSA-N

> <Salt_Solvent>
?

> <LogVP>
0.29

$$$$
100269
  -INDIGO-08031723152D

 23 23  0  0  0  0  0  0  0  0999 V2000
    0.0000   -1.6000    0.0000 O   0  0  0  0  0  0  0  0  0  0  0  0
    1.3856   -2.4000    0.0000 O   0  0  0  0  0  0  0  0  0  0  0  0
    1.3856   -4.0000    0.0000 H   0  0  0  0  0  0  0  0  0  0  0  0
    0.0000    0.0000    0.0000 C   0  0  0  0  0  0  0  0  0  0  0  0
   -1.5999    0.0000    0.0000 C   0  0  0  0  0  0  0  0  0  0  0  0
   -2.4000    1.3857    0.0000 C   0  0  0  0  0  0  0  0  0  0  0  0
   -1.6001    2.7713    0.0000 H   0  0  0  0  0  0  0  0  0  0  0  0
   -4.0000    1.3857    0.0000 C   0  0  0  0  0  0  0  0  0  0  0  0
   -4.7999    2.7713    0.0000 H   0  0  0  0  0  0  0  0  0  0  0  0
   -4.7999    0.0000    0.0000 C   0  0  0  0  0  0  0  0  0  0  0  0
   -6.4000    0.0000    0.0000 H   0  0  0  0  0  0  0  0  0  0  0  0
   -4.0000   -1.3856    0.0000 C   0  0  0  0  0  0  0  0  0  0  0  0
   -4.8001   -2.7713    0.0000 H   0  0  0  0  0  0  0  0  0  0  0  0
   -2.4000   -1.3856    0.0000 C   0  0  0  0  0  0  0  0  0  0  0  0
   -1.5999   -2.7713    0.0000 H   0  0  0  0  0  0  0  0  0  0  0  0
    1.6001    0.0000    0.0000 C   0  0  0  0  0  0  0  0  0  0  0  0
    3.2000    0.0000    0.0000 H   0  0  0  0  0  0  0  0  0  0  0  0
    2.4000   -1.3856    0.0000 H   0  0  0  0  0  0  0  0  0  0  0  0
    2.6284    1.2257    0.0000 H   0  0  0  0  0  0  0  0  0  0  0  0
    0.0000    1.6000    0.0000 C   0  0  0  0  0  0  0  0  0  0  0  0
   -0.2779    3.1757    0.0000 H   0  0  0  0  0  0  0  0  0  0  0  0
    1.2257    2.6284    0.0000 H   0  0  0  0  0  0  0  0  0  0  0  0
    1.5035    1.0528    0.0000 H   0  0  0  0  0  0  0  0  0  0  0  0
  1  2  1  0  0  0  0
  2  3  1  0  0  0  0
  1  4  1  0  0  0  0
  4  5  1  0  0  0  0
  5  6  1  0  0  0  0
  6  7  1  0  0  0  0
  6  8  2  0  0  0  0
  8  9  1  0  0  0  0
  8 10  1  0  0  0  0
 10 11  1  0  0  0  0
 10 12  2  0  0  0  0
 12 13  1  0  0  0  0
 12 14  1  0  0  0  0
 14  5  2  0  0  0  0
 14 15  1  0  0  0  0
  4 16  1  0  0  0  0
 16 17  1  0  0  0  0
 16 18  1  0  0  0  0
 16 19  1  0  0  0  0
  4 20  1  0  0  0  0
 20 21  1  0  0  0  0
 20 22  1  0  0  0  0
 20 23  1  0  0  0  0
M  END
> <ChemID>
100269

> <source_casrn>
80-15-9

> <CAS>
80-15-9

> <SMILES>
CC(C)(OO)c1ccccc1

> <NAME>
CUMENE HYDROPEROXIDE

> <preferred_name>
Cumene hydroperoxide

> <iupac>
2-phenylpropan-2-yl hydroperoxide

> <MPID>
24910

> <dsstox_substance_id>
DTXSID3024869

> <Canonical_QSARr>
CC(C)(OO)c1ccccc1

> <InChI_Code_QSARr>
InChI=1S/C9H12O2/c1-9(2,11-10)8-6-4-3-5-7-8/h3-7,10H,1-2H3

> <InChI Key_QSARr>
YQHLDYVWEZKEOX-UHFFFAOYSA-N

> <Salt_Solvent>
?

> <LogVP>
-2.4855

$$$$
100273
  -INDIGO-08031723152D

 15 14  0  0  0  0  0  0  0  0999 V2000
   -1.3857    2.4000    0.0000 O   0  0  0  0  0  0  0  0  0  0  0  0
   -1.3857    0.8000    0.0000 C   0  0  0  0  0  0  0  0  0  0  0  0
    0.0000    0.0000    0.0000 C   0  0  0  0  0  0  0  0  0  0  0  0
    0.0000   -1.6000    0.0000 C   0  0  0  0  0  0  0  0  0  0  0  0
   -1.3856   -2.4000    0.0000 H   0  0  0  0  0  0  0  0  0  0  0  0
    1.3856   -2.4000    0.0000 H   0  0  0  0  0  0  0  0  0  0  0  0
    1.3856    0.8000    0.0000 C   0  0  0  0  0  0  0  0  0  0  0  0
    2.7713    1.6000    0.0000 H   0  0  0  0  0  0  0  0  0  0  0  0
    2.7713    0.0000    0.0000 H   0  0  0  0  0  0  0  0  0  0  0  0
    1.3856    2.4000    0.0000 H   0  0  0  0  0  0  0  0  0  0  0  0
   -2.7713   -0.0000    0.0000 O   0  0  0  0  0  0  0  0  0  0  0  0
   -4.1569    0.8000    0.0000 C   0  0  0  0  0  0  0  0  0  0  0  0
   -5.5426    1.6000    0.0000 H   0  0  0  0  0  0  0  0  0  0  0  0
   -5.5426   -0.0000    0.0000 H   0  0  0  0  0  0  0  0  0  0  0  0
   -4.1569    2.4000    0.0000 H   0  0  0  0  0  0  0  0  0  0  0  0
  1  2  2  0  0  0  0
  2  3  1  0  0  0  0
  3  4  2  0  0  0  0
  4  5  1  0  0  0  0
  4  6  1  0  0  0  0
  3  7  1  0  0  0  0
  7  8  1  0  0  0  0
  7  9  1  0  0  0  0
  7 10  1  0  0  0  0
  2 11  1  0  0  0  0
 11 12  1  0  0  0  0
 12 13  1  0  0  0  0
 12 14  1  0  0  0  0
 12 15  1  0  0  0  0
M  END
> <ChemID>
100273

> <source_casrn>
80-62-6

> <CAS>
80-62-6

> <SMILES>
CC(=C)C(=O)OC

> <NAME>
METHYL METHACRYLATE

> <preferred_name>
Methyl methacrylate

> <iupac>
methyl 2-methylprop-2-enoate

> <MPID>
24914

> <dsstox_substance_id>
DTXSID2020844

> <Canonical_QSARr>
CC(=C)C(=O)OC

> <InChI_Code_QSARr>
InChI=1S/C5H8O2/c1-4(2)5(6)7-3/h1H2,2-3H3

> <InChI Key_QSARr>
VVQNEPGJFQJSBK-UHFFFAOYSA-N

> <Salt_Solvent>
?

> <LogVP>
1.5855

$$$$
100278
  -INDIGO-08031723152D

 28 30  0  0  0  0  0  0  0  0999 V2000
   -0.0001   -0.0001    0.0000 C   0  0  0  0  0  0  0  0  0  0  0  0
   -0.8001    1.3856    0.0000 C   0  0  0  0  0  0  0  0  0  0  0  0
   -0.0001    2.7713    0.0000 O   0  0  0  0  0  0  0  0  0  0  0  0
   -2.3999    1.3856    0.0000 C   0  0  0  0  0  0  0  0  0  0  0  0
   -3.1999    2.7712    0.0000 C   0  0  0  0  0  0  0  0  0  0  0  0
   -2.3999    4.1569    0.0000 H   0  0  0  0  0  0  0  0  0  0  0  0
   -4.8000    2.7712    0.0000 C   0  0  0  0  0  0  0  0  0  0  0  0
   -5.6000    4.1569    0.0000 H   0  0  0  0  0  0  0  0  0  0  0  0
   -5.6000    1.3856    0.0000 C   0  0  0  0  0  0  0  0  0  0  0  0
   -7.2000    1.3856    0.0000 H   0  0  0  0  0  0  0  0  0  0  0  0
   -4.8000    0.0001    0.0000 C   0  0  0  0  0  0  0  0  0  0  0  0
   -5.6000   -1.3856    0.0000 H   0  0  0  0  0  0  0  0  0  0  0  0
   -3.1999   -0.0001    0.0000 C   0  0  0  0  0  0  0  0  0  0  0  0
   -2.3999   -1.3856    0.0000 C   0  0  0  0  0  0  0  0  0  0  0  0
   -3.1999   -2.7712    0.0000 O   0  0  0  0  0  0  0  0  0  0  0  0
   -0.8001   -1.3856    0.0000 C   0  0  0  0  0  0  0  0  0  0  0  0
   -0.0001   -2.7712    0.0000 C   0  0  0  0  0  0  0  0  0  0  0  0
   -0.7999   -4.1569    0.0000 H   0  0  0  0  0  0  0  0  0  0  0  0
    1.5999   -2.7712    0.0000 C   0  0  0  0  0  0  0  0  0  0  0  0
    2.4000   -4.1569    0.0000 H   0  0  0  0  0  0  0  0  0  0  0  0
    2.4000   -1.3856    0.0000 C   0  0  0  0  0  0  0  0  0  0  0  0
    4.0000   -1.3856    0.0000 H   0  0  0  0  0  0  0  0  0  0  0  0
    1.5999   -0.0001    0.0000 C   0  0  0  0  0  0  0  0  0  0  0  0
    2.4000    1.3856    0.0000 O   0  0  0  0  0  0  0  0  0  0  0  0
    4.0000    1.3856    0.0000 C   0  0  0  0  0  0  0  0  0  0  0  0
    5.6000    1.3856    0.0000 H   0  0  0  0  0  0  0  0  0  0  0  0
    4.8000    2.7712    0.0000 H   0  0  0  0  0  0  0  0  0  0  0  0
    3.2000    2.7712    0.0000 H   0  0  0  0  0  0  0  0  0  0  0  0
  1  2  1  0  0  0  0
  2  3  2  0  0  0  0
  2  4  1  0  0  0  0
  4  5  1  0  0  0  0
  5  6  1  0  0  0  0
  5  7  2  0  0  0  0
  7  8  1  0  0  0  0
  7  9  1  0  0  0  0
  9 10  1  0  0  0  0
  9 11  2  0  0  0  0
 11 12  1  0  0  0  0
 11 13  1  0  0  0  0
 13  4  2  0  0  0  0
 13 14  1  0  0  0  0
 14 15  2  0  0  0  0
 14 16  1  0  0  0  0
 16  1  1  0  0  0  0
 16 17  2  0  0  0  0
 17 18  1  0  0  0  0
 17 19  1  0  0  0  0
 19 20  1  0  0  0  0
 19 21  2  0  0  0  0
 21 22  1  0  0  0  0
 21 23  1  0  0  0  0
 23  1  2  0  0  0  0
 23 24  1  0  0  0  0
 24 25  1  0  0  0  0
 25 26  1  0  0  0  0
 25 27  1  0  0  0  0
 25 28  1  0  0  0  0
M  END
> <ChemID>
100278

> <source_casrn>
82-39-3

> <CAS>
82-39-3

> <SMILES>
COc1cccc2c1C(=O)c1ccccc1C2=O

> <NAME>
1-METHOXY-9,10-ANTHRAQUINONE

> <preferred_name>
9,10-Anthracenedione, 1-methoxy-

> <iupac>
1-methoxyanthracene-9,10-dione

> <MPID>
24918

> <dsstox_substance_id>
DTXSID8058871

> <Canonical_QSARr>
COc1cccc2c1C(=O)c1ccccc1C2=O

> <InChI_Code_QSARr>
InChI=1S/C15H10O3/c1-18-12-8-4-7-11-13(12)15(17)10-6-3-2-5-9(10)14(11)16/h2-8H,1H3

> <InChI Key_QSARr>
CQGDBBBZCJYDRY-UHFFFAOYSA-N

> <Salt_Solvent>
?

> <LogVP>
-6.5591

$$$$
100282
  -INDIGO-08031723152D

 22 24  0  0  0  0  0  0  0  0999 V2000
    2.4000    1.3856    0.0000 C   0  0  0  0  0  0  0  0  0  0  0  0
    3.2001    2.7713    0.0000 H   0  0  0  0  0  0  0  0  0  0  0  0
    3.2001    0.0000    0.0000 C   0  0  0  0  0  0  0  0  0  0  0  0
    4.8000    0.0000    0.0000 H   0  0  0  0  0  0  0  0  0  0  0  0
    2.4000   -1.3857    0.0000 C   0  0  0  0  0  0  0  0  0  0  0  0
    3.2001   -2.7712    0.0000 H   0  0  0  0  0  0  0  0  0  0  0  0
    0.8000   -1.3857    0.0000 C   0  0  0  0  0  0  0  0  0  0  0  0
    0.0000   -2.7712    0.0000 C   0  0  0  0  0  0  0  0  0  0  0  0
    0.8000   -4.1569    0.0000 H   0  0  0  0  0  0  0  0  0  0  0  0
   -1.6000   -2.7712    0.0000 C   0  0  0  0  0  0  0  0  0  0  0  0
   -2.4001   -4.1569    0.0000 H   0  0  0  0  0  0  0  0  0  0  0  0
   -2.4001   -1.3857    0.0000 C   0  0  0  0  0  0  0  0  0  0  0  0
   -4.0000   -1.3857    0.0000 H   0  0  0  0  0  0  0  0  0  0  0  0
   -1.6000    0.0000    0.0000 C   0  0  0  0  0  0  0  0  0  0  0  0
    0.0000    0.0000    0.0000 C   0  0  0  0  0  0  0  0  0  0  0  0
    0.8000    1.3856    0.0000 C   0  0  0  0  0  0  0  0  0  0  0  0
   -0.4517    2.3823    0.0000 C   0  0  0  0  0  0  0  0  0  0  0  0
   -1.4181    3.6575    0.0000 H   0  0  0  0  0  0  0  0  0  0  0  0
    0.6932    3.5001    0.0000 H   0  0  0  0  0  0  0  0  0  0  0  0
   -1.8373    1.5823    0.0000 C   0  0  0  0  0  0  0  0  0  0  0  0
   -3.3777    1.1497    0.0000 H   0  0  0  0  0  0  0  0  0  0  0  0
   -2.4585    3.0569    0.0000 H   0  0  0  0  0  0  0  0  0  0  0  0
  1  2  1  0  0  0  0
  1  3  1  0  0  0  0
  3  4  1  0  0  0  0
  3  5  2  0  0  0  0
  5  6  1  0  0  0  0
  5  7  1  0  0  0  0
  7  8  2  0  0  0  0
  8  9  1  0  0  0  0
  8 10  1  0  0  0  0
 10 11  1  0  0  0  0
 10 12  2  0  0  0  0
 12 13  1  0  0  0  0
 12 14  1  0  0  0  0
 14 15  2  0  0  0  0
 15  7  1  0  0  0  0
 15 16  1  0  0  0  0
 16  1  2  0  0  0  0
 16 17  1  0  0  0  0
 17 18  1  0  0  0  0
 17 19  1  0  0  0  0
 17 20  1  0  0  0  0
 20 14  1  0  0  0  0
 20 21  1  0  0  0  0
 20 22  1  0  0  0  0
M  END
> <ChemID>
100282

> <source_casrn>
83-32-9

> <CAS>
83-32-9

> <SMILES>
C1Cc2cccc3cccc1c23

> <NAME>
ACENAPHTHENE

> <preferred_name>
Acenaphthene

> <iupac>
1,2-dihydroacenaphthylene

> <MPID>
24922

> <dsstox_substance_id>
DTXSID3021774

> <Canonical_QSARr>
C1Cc2cccc3cccc1c23

> <InChI_Code_QSARr>
InChI=1S/C12H10/c1-3-9-4-2-6-11-8-7-10(5-1)12(9)11/h1-6H,7-8H2

> <InChI Key_QSARr>
CWRYPZZKDGJXCA-UHFFFAOYSA-N

> <Salt_Solvent>
?

> <LogVP>
-2.6676

$$$$
100286
  -INDIGO-08031723152D

 50 52  0  0  0  0  0  0  0  0999 V2000
    4.7270    0.8335    0.0000 O   0  0  0  0  0  0  0  0  0  0  0  0
    5.2744    2.3369    0.0000 C   0  0  0  0  0  0  0  0  0  0  0  0
    6.8500    2.6149    0.0000 O   0  0  0  0  0  0  0  0  0  0  0  0
    7.8785    1.3892    0.0000 C   0  0  0  0  0  0  0  0  0  0  0  0
    6.4929    0.5891    0.0000 H   0  0  0  0  0  0  0  0  0  0  0  0
    8.9070    2.6149    0.0000 C   0  0  0  0  0  0  0  0  0  0  0  0
    7.5212    3.4148    0.0000 H   0  0  0  0  0  0  0  0  0  0  0  0
    9.4541    4.1184    0.0000 H   0  0  0  0  0  0  0  0  0  0  0  0
   10.4826    2.3369    0.0000 C   0  0  0  0  0  0  0  0  0  0  0  0
   10.4826    3.9370    0.0000 H   0  0  0  0  0  0  0  0  0  0  0  0
   12.0584    2.6149    0.0000 H   0  0  0  0  0  0  0  0  0  0  0  0
   11.0299    0.8335    0.0000 C   0  0  0  0  0  0  0  0  0  0  0  0
   12.4155    1.6336    0.0000 H   0  0  0  0  0  0  0  0  0  0  0  0
   12.0584   -0.3922    0.0000 H   0  0  0  0  0  0  0  0  0  0  0  0
   10.0014   -0.3922    0.0000 C   0  0  0  0  0  0  0  0  0  0  0  0
   11.3870   -1.1921    0.0000 H   0  0  0  0  0  0  0  0  0  0  0  0
    9.4541   -1.8957    0.0000 H   0  0  0  0  0  0  0  0  0  0  0  0
    8.4256   -0.1144    0.0000 C   0  0  0  0  0  0  0  0  0  0  0  0
    8.4256   -1.7142    0.0000 H   0  0  0  0  0  0  0  0  0  0  0  0
    6.8500   -0.3922    0.0000 H   0  0  0  0  0  0  0  0  0  0  0  0
    4.2459    3.5626    0.0000 C   0  0  0  0  0  0  0  0  0  0  0  0
    2.6701    3.2848    0.0000 C   0  0  0  0  0  0  0  0  0  0  0  0
    2.1230    1.7814    0.0000 C   0  0  0  0  0  0  0  0  0  0  0  0
    3.1514    0.5557    0.0000 O   0  0  0  0  0  0  0  0  0  0  0  0
    0.5474    1.5036    0.0000 O   0  0  0  0  0  0  0  0  0  0  0  0
   -0.0000   -0.0001    0.0000 C   0  0  0  0  0  0  0  0  0  0  0  0
    1.5756   -0.2779    0.0000 H   0  0  0  0  0  0  0  0  0  0  0  0
   -1.3856    0.8000    0.0000 C   0  0  0  0  0  0  0  0  0  0  0  0
   -0.3571    2.0257    0.0000 H   0  0  0  0  0  0  0  0  0  0  0  0
   -2.4141    2.0257    0.0000 H   0  0  0  0  0  0  0  0  0  0  0  0
   -2.7714   -0.0001    0.0000 C   0  0  0  0  0  0  0  0  0  0  0  0
   -3.3185    1.5036    0.0000 H   0  0  0  0  0  0  0  0  0  0  0  0
   -4.3470   -0.2779    0.0000 H   0  0  0  0  0  0  0  0  0  0  0  0
   -2.7714   -1.6001    0.0000 C   0  0  0  0  0  0  0  0  0  0  0  0
   -4.3470   -1.3221    0.0000 H   0  0  0  0  0  0  0  0  0  0  0  0
   -3.3185   -3.1035    0.0000 H   0  0  0  0  0  0  0  0  0  0  0  0
   -1.3856   -2.4000    0.0000 C   0  0  0  0  0  0  0  0  0  0  0  0
   -2.4141   -3.6257    0.0000 H   0  0  0  0  0  0  0  0  0  0  0  0
   -0.3571   -3.6257    0.0000 H   0  0  0  0  0  0  0  0  0  0  0  0
   -0.0000   -1.6001    0.0000 C   0  0  0  0  0  0  0  0  0  0  0  0
    0.5474   -3.1035    0.0000 H   0  0  0  0  0  0  0  0  0  0  0  0
    1.5756   -1.3221    0.0000 H   0  0  0  0  0  0  0  0  0  0  0  0
    1.6416    4.5105    0.0000 C   0  0  0  0  0  0  0  0  0  0  0  0
    0.0660    4.2327    0.0000 H   0  0  0  0  0  0  0  0  0  0  0  0
    2.1889    6.0140    0.0000 C   0  0  0  0  0  0  0  0  0  0  0  0
    1.1605    7.2396    0.0000 H   0  0  0  0  0  0  0  0  0  0  0  0
    3.7645    6.2919    0.0000 C   0  0  0  0  0  0  0  0  0  0  0  0
    4.3119    7.7954    0.0000 H   0  0  0  0  0  0  0  0  0  0  0  0
    4.7930    5.0662    0.0000 C   0  0  0  0  0  0  0  0  0  0  0  0
    6.3689    5.3440    0.0000 H   0  0  0  0  0  0  0  0  0  0  0  0
  1  2  2  0  0  0  0
  2  3  1  0  0  0  0
  3  4  1  0  0  0  0
  4  5  1  0  0  0  0
  4  6  1  0  0  0  0
  6  7  1  0  0  0  0
  6  8  1  0  0  0  0
  6  9  1  0  0  0  0
  9 10  1  0  0  0  0
  9 11  1  0  0  0  0
  9 12  1  0  0  0  0
 12 13  1  0  0  0  0
 12 14  1  0  0  0  0
 12 15  1  0  0  0  0
 15 16  1  0  0  0  0
 15 17  1  0  0  0  0
 15 18  1  0  0  0  0
 18  4  1  0  0  0  0
 18 19  1  0  0  0  0
 18 20  1  0  0  0  0
  2 21  1  0  0  0  0
 21 22  1  0  0  0  0
 22 23  1  0  0  0  0
 23 24  2  0  0  0  0
 23 25  1  0  0  0  0
 25 26  1  0  0  0  0
 26 27  1  0  0  0  0
 26 28  1  0  0  0  0
 28 29  1  0  0  0  0
 28 30  1  0  0  0  0
 28 31  1  0  0  0  0
 31 32  1  0  0  0  0
 31 33  1  0  0  0  0
 31 34  1  0  0  0  0
 34 35  1  0  0  0  0
 34 36  1  0  0  0  0
 34 37  1  0  0  0  0
 37 38  1  0  0  0  0
 37 39  1  0  0  0  0
 37 40  1  0  0  0  0
 40 26  1  0  0  0  0
 40 41  1  0  0  0  0
 40 42  1  0  0  0  0
 22 43  2  0  0  0  0
 43 44  1  0  0  0  0
 43 45  1  0  0  0  0
 45 46  1  0  0  0  0
 45 47  2  0  0  0  0
 47 48  1  0  0  0  0
 47 49  1  0  0  0  0
 49 21  2  0  0  0  0
 49 50  1  0  0  0  0
M  END
> <ChemID>
100286

> <source_casrn>
84-61-7

> <CAS>
84-61-7

> <SMILES>
O=C(OC1CCCCC1)c1ccccc1C(=O)OC1CCCCC1

> <NAME>
DICYCLOHEXYL PHTHALATE

> <preferred_name>
Dicyclohexyl phthalate

> <iupac>
dicyclohexyl benzene-1,2-dicarboxylate

> <MPID>
24926

> <dsstox_substance_id>
DTXSID5025021

> <Canonical_QSARr>
O=C(OC1CCCCC1)c1ccccc1C(=O)OC1CCCCC1

> <InChI_Code_QSARr>
InChI=1S/C20H26O4/c21-19(23-15-9-3-1-4-10-15)17-13-7-8-14-18(17)20(22)24-16-11-5-2-6-12-16/h7-8,13-16H,1-6,9-12H2

> <InChI Key_QSARr>
VOWAEIGWURALJQ-UHFFFAOYSA-N

> <Salt_Solvent>
?

> <LogVP>
-6.061

$$$$
100290
  -INDIGO-08031723152D

 42 42  0  0  0  0  0  0  0  0999 V2000
   -4.8000    5.5426    0.0000 C   0  0  0  0  0  0  0  0  0  0  0  0
   -3.9999    6.9282    0.0000 H   0  0  0  0  0  0  0  0  0  0  0  0
   -6.4000    5.5426    0.0000 C   0  0  0  0  0  0  0  0  0  0  0  0
   -7.2001    6.9282    0.0000 H   0  0  0  0  0  0  0  0  0  0  0  0
   -7.2001    4.1569    0.0000 C   0  0  0  0  0  0  0  0  0  0  0  0
   -8.8000    4.1569    0.0000 H   0  0  0  0  0  0  0  0  0  0  0  0
   -6.4000    2.7713    0.0000 C   0  0  0  0  0  0  0  0  0  0  0  0
   -7.2001    1.3856    0.0000 C   0  0  0  0  0  0  0  0  0  0  0  0
   -6.4000   -0.0000    0.0000 O   0  0  0  0  0  0  0  0  0  0  0  0
   -8.8000    1.3856    0.0000 O   0  0  0  0  0  0  0  0  0  0  0  0
   -9.6001   -0.0000    0.0000 C   0  0  0  0  0  0  0  0  0  0  0  0
   -8.3307   -0.9739    0.0000 H   0  0  0  0  0  0  0  0  0  0  0  0
   -9.3912   -1.5864    0.0000 H   0  0  0  0  0  0  0  0  0  0  0  0
  -11.2000   -0.0000    0.0000 C   0  0  0  0  0  0  0  0  0  0  0  0
  -12.4695    0.9741    0.0000 H   0  0  0  0  0  0  0  0  0  0  0  0
  -11.4089    1.5863    0.0000 H   0  0  0  0  0  0  0  0  0  0  0  0
  -12.0001   -1.3856    0.0000 C   0  0  0  0  0  0  0  0  0  0  0  0
  -10.7307   -2.3597    0.0000 H   0  0  0  0  0  0  0  0  0  0  0  0
  -11.7913   -2.9720    0.0000 H   0  0  0  0  0  0  0  0  0  0  0  0
  -13.6001   -1.3856    0.0000 C   0  0  0  0  0  0  0  0  0  0  0  0
  -15.2000   -1.3856    0.0000 H   0  0  0  0  0  0  0  0  0  0  0  0
  -14.3999   -2.7713    0.0000 H   0  0  0  0  0  0  0  0  0  0  0  0
  -14.3999   -0.0000    0.0000 H   0  0  0  0  0  0  0  0  0  0  0  0
   -4.8000    2.7713    0.0000 C   0  0  0  0  0  0  0  0  0  0  0  0
   -3.9999    1.3856    0.0000 C   0  0  0  0  0  0  0  0  0  0  0  0
   -4.8000   -0.0000    0.0000 O   0  0  0  0  0  0  0  0  0  0  0  0
   -2.4000    1.3856    0.0000 O   0  0  0  0  0  0  0  0  0  0  0  0
   -1.5999   -0.0000    0.0000 C   0  0  0  0  0  0  0  0  0  0  0  0
   -1.8088   -1.5864    0.0000 H   0  0  0  0  0  0  0  0  0  0  0  0
   -2.8693   -0.9739    0.0000 H   0  0  0  0  0  0  0  0  0  0  0  0
    0.0000   -0.0000    0.0000 C   0  0  0  0  0  0  0  0  0  0  0  0
    0.2089    1.5863    0.0000 H   0  0  0  0  0  0  0  0  0  0  0  0
    1.2695    0.9741    0.0000 H   0  0  0  0  0  0  0  0  0  0  0  0
    0.8001   -1.3856    0.0000 C   0  0  0  0  0  0  0  0  0  0  0  0
    0.5913   -2.9720    0.0000 H   0  0  0  0  0  0  0  0  0  0  0  0
   -0.4693   -2.3597    0.0000 H   0  0  0  0  0  0  0  0  0  0  0  0
    2.4001   -1.3856    0.0000 C   0  0  0  0  0  0  0  0  0  0  0  0
    4.0000   -1.3856    0.0000 H   0  0  0  0  0  0  0  0  0  0  0  0
    3.1999   -2.7713    0.0000 H   0  0  0  0  0  0  0  0  0  0  0  0
    3.1999   -0.0000    0.0000 H   0  0  0  0  0  0  0  0  0  0  0  0
   -3.9999    4.1569    0.0000 C   0  0  0  0  0  0  0  0  0  0  0  0
   -2.4000    4.1569    0.0000 H   0  0  0  0  0  0  0  0  0  0  0  0
  1  2  1  0  0  0  0
  1  3  1  0  0  0  0
  3  4  1  0  0  0  0
  3  5  2  0  0  0  0
  5  6  1  0  0  0  0
  5  7  1  0  0  0  0
  7  8  1  0  0  0  0
  8  9  2  0  0  0  0
  8 10  1  0  0  0  0
 10 11  1  0  0  0  0
 11 12  1  0  0  0  0
 11 13  1  0  0  0  0
 11 14  1  0  0  0  0
 14 15  1  0  0  0  0
 14 16  1  0  0  0  0
 14 17  1  0  0  0  0
 17 18  1  0  0  0  0
 17 19  1  0  0  0  0
 17 20  1  0  0  0  0
 20 21  1  0  0  0  0
 20 22  1  0  0  0  0
 20 23  1  0  0  0  0
  7 24  2  0  0  0  0
 24 25  1  0  0  0  0
 25 26  2  0  0  0  0
 25 27  1  0  0  0  0
 27 28  1  0  0  0  0
 28 29  1  0  0  0  0
 28 30  1  0  0  0  0
 28 31  1  0  0  0  0
 31 32  1  0  0  0  0
 31 33  1  0  0  0  0
 31 34  1  0  0  0  0
 34 35  1  0  0  0  0
 34 36  1  0  0  0  0
 34 37  1  0  0  0  0
 37 38  1  0  0  0  0
 37 39  1  0  0  0  0
 37 40  1  0  0  0  0
 24 41  1  0  0  0  0
 41  1  2  0  0  0  0
 41 42  1  0  0  0  0
M  END
> <ChemID>
100290

> <source_casrn>
84-74-2

> <CAS>
84-74-2

> <SMILES>
CCCCOC(=O)c1ccccc1C(=O)OCCCC

> <NAME>
DIBUTYL PHTHALATE

> <preferred_name>
Dibutyl phthalate

> <iupac>
dibutyl benzene-1,2-dicarboxylate

> <MPID>
24930

> <dsstox_substance_id>
DTXSID2021781

> <Canonical_QSARr>
CCCCOC(=O)c1ccccc1C(=O)OCCCC

> <InChI_Code_QSARr>
InChI=1S/C16H22O4/c1-3-5-11-19-15(17)13-9-7-8-10-14(13)16(18)20-12-6-4-2/h7-10H,3-6,11-12H2,1-2H3

> <InChI Key_QSARr>
DOIRQSBPFJWKBE-UHFFFAOYSA-N

> <Salt_Solvent>
?

> <LogVP>
-4.6968

$$$$
100294
  -INDIGO-08031723152D

 15 16  0  0  0  0  0  0  0  0999 V2000
   -3.6161    2.0161    0.0000 O   0  0  0  0  0  0  0  0  0  0  0  0
   -2.0944    1.5217    0.0000 C   0  0  0  0  0  0  0  0  0  0  0  0
   -1.6000   -0.0000    0.0000 C   0  0  0  0  0  0  0  0  0  0  0  0
   -0.0000   -0.0000    0.0000 C   0  0  0  0  0  0  0  0  0  0  0  0
    0.8000   -1.3857    0.0000 C   0  0  0  0  0  0  0  0  0  0  0  0
    2.4000   -1.3857    0.0000 H   0  0  0  0  0  0  0  0  0  0  0  0
   -0.0000   -2.7713    0.0000 C   0  0  0  0  0  0  0  0  0  0  0  0
    0.8000   -4.1569    0.0000 H   0  0  0  0  0  0  0  0  0  0  0  0
   -1.6000   -2.7713    0.0000 C   0  0  0  0  0  0  0  0  0  0  0  0
   -2.4000   -4.1569    0.0000 H   0  0  0  0  0  0  0  0  0  0  0  0
   -2.4000   -1.3857    0.0000 C   0  0  0  0  0  0  0  0  0  0  0  0
   -4.0000   -1.3857    0.0000 H   0  0  0  0  0  0  0  0  0  0  0  0
    0.4944    1.5217    0.0000 C   0  0  0  0  0  0  0  0  0  0  0  0
    2.0161    2.0161    0.0000 O   0  0  0  0  0  0  0  0  0  0  0  0
   -0.8000    2.4621    0.0000 O   0  0  0  0  0  0  0  0  0  0  0  0
  1  2  2  0  0  0  0
  2  3  1  0  0  0  0
  3  4  1  0  0  0  0
  4  5  2  0  0  0  0
  5  6  1  0  0  0  0
  5  7  1  0  0  0  0
  7  8  1  0  0  0  0
  7  9  2  0  0  0  0
  9 10  1  0  0  0  0
  9 11  1  0  0  0  0
 11  3  2  0  0  0  0
 11 12  1  0  0  0  0
  4 13  1  0  0  0  0
 13 14  2  0  0  0  0
 13 15  1  0  0  0  0
 15  2  1  0  0  0  0
M  END
> <ChemID>
100294

> <source_casrn>
85-44-9

> <CAS>
85-44-9

> <SMILES>
O=C1OC(=O)c2ccccc12

> <NAME>
PHTHALIC ANHYDRIDE

> <preferred_name>
Phthalic anhydride

> <iupac>
2-benzofuran-1,3-dione

> <MPID>
24934

> <dsstox_substance_id>
DTXSID2021159

> <Canonical_QSARr>
O=C1OC(=O)c2ccccc12

> <InChI_Code_QSARr>
InChI=1S/C8H4O3/c9-7-5-3-1-2-4-6(5)8(10)11-7/h1-4H

> <InChI Key_QSARr>
LGRFSURHDFAFJT-UHFFFAOYSA-N

> <Salt_Solvent>
?

> <LogVP>
-3.2865

$$$$
100299
  -INDIGO-08031723152D

 20 21  0  0  0  0  0  0  0  0999 V2000
   -1.6000    2.7713    0.0000 O   0  0  0  0  0  0  0  0  0  0  0  0
   -2.4001    1.3856    0.0000 N   0  0  0  0  0  0  0  0  0  0  0  0
   -1.6000    0.0000    0.0000 C   0  0  0  0  0  0  0  0  0  0  0  0
    0.0000    0.0000    0.0000 C   0  0  0  0  0  0  0  0  0  0  0  0
    0.8000   -1.3856    0.0000 C   0  0  0  0  0  0  0  0  0  0  0  0
    2.4000   -1.3856    0.0000 C   0  0  0  0  0  0  0  0  0  0  0  0
    3.2001   -2.7713    0.0000 H   0  0  0  0  0  0  0  0  0  0  0  0
    3.2001    0.0000    0.0000 C   0  0  0  0  0  0  0  0  0  0  0  0
    4.8000    0.0000    0.0000 H   0  0  0  0  0  0  0  0  0  0  0  0
    2.4000    1.3856    0.0000 C   0  0  0  0  0  0  0  0  0  0  0  0
    3.2001    2.7713    0.0000 H   0  0  0  0  0  0  0  0  0  0  0  0
    0.8000    1.3856    0.0000 C   0  0  0  0  0  0  0  0  0  0  0  0
    0.0000    2.7713    0.0000 H   0  0  0  0  0  0  0  0  0  0  0  0
    0.0000   -2.7713    0.0000 C   0  0  0  0  0  0  0  0  0  0  0  0
    0.8000   -4.1569    0.0000 H   0  0  0  0  0  0  0  0  0  0  0  0
   -1.6000   -2.7713    0.0000 C   0  0  0  0  0  0  0  0  0  0  0  0
   -2.4001   -4.1569    0.0000 H   0  0  0  0  0  0  0  0  0  0  0  0
   -2.4001   -1.3856    0.0000 C   0  0  0  0  0  0  0  0  0  0  0  0
   -4.0000   -1.3856    0.0000 H   0  0  0  0  0  0  0  0  0  0  0  0
   -4.0000    1.3856    0.0000 O   0  0  0  0  0  0  0  0  0  0  0  0
  1  2  2  0  0  0  0
  2  3  1  0  0  0  0
  3  4  1  0  0  0  0
  4  5  1  0  0  0  0
  5  6  2  0  0  0  0
  6  7  1  0  0  0  0
  6  8  1  0  0  0  0
  8  9  1  0  0  0  0
  8 10  2  0  0  0  0
 10 11  1  0  0  0  0
 10 12  1  0  0  0  0
 12  4  2  0  0  0  0
 12 13  1  0  0  0  0
  5 14  1  0  0  0  0
 14 15  1  0  0  0  0
 14 16  2  0  0  0  0
 16 17  1  0  0  0  0
 16 18  1  0  0  0  0
 18  3  2  0  0  0  0
 18 19  1  0  0  0  0
  2 20  1  0  0  0  0
M  CHG  2   2   1  20  -1
M  END
> <ChemID>
100299

> <source_casrn>
86-57-7

> <CAS>
86-57-7

> <SMILES>
[O-][N+](=O)c1cccc2ccccc21

> <NAME>
1-NITRONAPHTHALENE

> <preferred_name>
1-Nitronaphthalene

> <iupac>
1-nitronaphthalene

> <MPID>
24938

> <dsstox_substance_id>
DTXSID7020978

> <Canonical_QSARr>
[O-][N+](=O)c1cccc2ccccc21

> <InChI_Code_QSARr>
InChI=1S/C10H7NO2/c12-11(13)10-7-3-5-8-4-1-2-6-9(8)10/h1-7H

> <InChI Key_QSARr>
RJKGJBPXVHTNJL-UHFFFAOYSA-N

> <Salt_Solvent>
?

> <LogVP>
-3.3188

$$$$
100303
  -INDIGO-08031723152D

 20 20  0  0  0  0  0  0  0  0999 V2000
    2.4000   -1.3856    0.0000 N   0  0  0  0  0  0  0  0  0  0  0  0
    3.2000   -2.7713    0.0000 H   0  0  0  0  0  0  0  0  0  0  0  0
    3.2000    0.0000    0.0000 H   0  0  0  0  0  0  0  0  0  0  0  0
    0.8000   -1.3856    0.0000 C   0  0  0  0  0  0  0  0  0  0  0  0
   -0.0000    0.0000    0.0000 C   0  0  0  0  0  0  0  0  0  0  0  0
    0.8000    1.3856    0.0000 C   0  0  0  0  0  0  0  0  0  0  0  0
    1.6000    2.7713    0.0000 H   0  0  0  0  0  0  0  0  0  0  0  0
    2.4000    1.3856    0.0000 H   0  0  0  0  0  0  0  0  0  0  0  0
   -0.0000    2.7713    0.0000 H   0  0  0  0  0  0  0  0  0  0  0  0
   -1.6000    0.0000    0.0000 C   0  0  0  0  0  0  0  0  0  0  0  0
   -2.4000    1.3856    0.0000 C   0  0  0  0  0  0  0  0  0  0  0  0
   -3.2000    2.7713    0.0000 H   0  0  0  0  0  0  0  0  0  0  0  0
   -4.0000    1.3856    0.0000 H   0  0  0  0  0  0  0  0  0  0  0  0
   -1.6000    2.7713    0.0000 H   0  0  0  0  0  0  0  0  0  0  0  0
   -2.4000   -1.3856    0.0000 C   0  0  0  0  0  0  0  0  0  0  0  0
   -4.0000   -1.3856    0.0000 H   0  0  0  0  0  0  0  0  0  0  0  0
   -1.6000   -2.7713    0.0000 C   0  0  0  0  0  0  0  0  0  0  0  0
   -2.4000   -4.1569    0.0000 H   0  0  0  0  0  0  0  0  0  0  0  0
   -0.0000   -2.7713    0.0000 C   0  0  0  0  0  0  0  0  0  0  0  0
    0.8000   -4.1569    0.0000 H   0  0  0  0  0  0  0  0  0  0  0  0
  1  2  1  0  0  0  0
  1  3  1  0  0  0  0
  1  4  1  0  0  0  0
  4  5  1  0  0  0  0
  5  6  1  0  0  0  0
  6  7  1  0  0  0  0
  6  8  1  0  0  0  0
  6  9  1  0  0  0  0
  5 10  2  0  0  0  0
 10 11  1  0  0  0  0
 11 12  1  0  0  0  0
 11 13  1  0  0  0  0
 11 14  1  0  0  0  0
 10 15  1  0  0  0  0
 15 16  1  0  0  0  0
 15 17  2  0  0  0  0
 17 18  1  0  0  0  0
 17 19  1  0  0  0  0
 19  4  2  0  0  0  0
 19 20  1  0  0  0  0
M  END
> <ChemID>
100303

> <source_casrn>
87-59-2

> <CAS>
87-59-2

> <SMILES>
Cc1cccc(N)c1C

> <NAME>
2,3-DIMETHYLANILINE

> <preferred_name>
2,3-Dimethylaniline

> <iupac>
2,3-dimethylaniline

> <MPID>
24942

> <dsstox_substance_id>
DTXSID3026304

> <Canonical_QSARr>
Cc1cccc(N)c1C

> <InChI_Code_QSARr>
InChI=1S/C8H11N/c1-6-4-3-5-8(9)7(6)2/h3-5H,9H2,1-2H3

> <InChI Key_QSARr>
VVAKEQGKZNKUSU-UHFFFAOYSA-N

> <Salt_Solvent>
?

> <LogVP>
-1.1249

$$$$
100307
  -INDIGO-08031723152D

 15 15  0  0  0  0  0  0  0  0999 V2000
    0.8000    1.3856    0.0000 O   0  0  0  0  0  0  0  0  0  0  0  0
    2.4000    1.3856    0.0000 H   0  0  0  0  0  0  0  0  0  0  0  0
   -0.0000   -0.0000    0.0000 C   0  0  0  0  0  0  0  0  0  0  0  0
    0.8000   -1.3857    0.0000 C   0  0  0  0  0  0  0  0  0  0  0  0
    2.4000   -1.3857    0.0000 O   0  0  0  0  0  0  0  0  0  0  0  0
    3.2000   -2.7713    0.0000 H   0  0  0  0  0  0  0  0  0  0  0  0
   -0.0000   -2.7713    0.0000 C   0  0  0  0  0  0  0  0  0  0  0  0
    0.8000   -4.1569    0.0000 H   0  0  0  0  0  0  0  0  0  0  0  0
   -1.6000   -2.7713    0.0000 C   0  0  0  0  0  0  0  0  0  0  0  0
   -2.4000   -4.1569    0.0000 H   0  0  0  0  0  0  0  0  0  0  0  0
   -2.4000   -1.3856    0.0000 C   0  0  0  0  0  0  0  0  0  0  0  0
   -4.0000   -1.3856    0.0000 H   0  0  0  0  0  0  0  0  0  0  0  0
   -1.6000   -0.0000    0.0000 C   0  0  0  0  0  0  0  0  0  0  0  0
   -2.4000    1.3856    0.0000 O   0  0  0  0  0  0  0  0  0  0  0  0
   -4.0000    1.3856    0.0000 H   0  0  0  0  0  0  0  0  0  0  0  0
  1  2  1  0  0  0  0
  1  3  1  0  0  0  0
  3  4  1  0  0  0  0
  4  5  1  0  0  0  0
  5  6  1  0  0  0  0
  4  7  2  0  0  0  0
  7  8  1  0  0  0  0
  7  9  1  0  0  0  0
  9 10  1  0  0  0  0
  9 11  2  0  0  0  0
 11 12  1  0  0  0  0
 11 13  1  0  0  0  0
 13  3  2  0  0  0  0
 13 14  1  0  0  0  0
 14 15  1  0  0  0  0
M  END
> <ChemID>
100307

> <source_casrn>
87-66-1

> <CAS>
87-66-1

> <SMILES>
Oc1c(O)cccc1O

> <NAME>
1,2,3-TRIHYDROXYBENZENE

> <preferred_name>
Pyrogallol

> <iupac>
benzene-1,2,3-triol

> <MPID>
24946

> <dsstox_substance_id>
DTXSID6025983

> <Canonical_QSARr>
Oc1c(O)cccc1O

> <InChI_Code_QSARr>
InChI=1S/C6H6O3/c7-4-2-1-3-5(8)6(4)9/h1-3,7-9H

> <InChI Key_QSARr>
WQGWDDDVZFFDIG-UHFFFAOYSA-N

> <Salt_Solvent>
?

> <LogVP>
-3.3197

$$$$
100311
  -INDIGO-08031723152D

 13 13  0  0  0  0  0  0  0  0999 V2000
    0.8000    1.3856    0.0000 O   0  0  0  0  0  0  0  0  0  0  0  0
    2.4000    1.3856    0.0000 H   0  0  0  0  0  0  0  0  0  0  0  0
   -0.0000   -0.0000    0.0000 C   0  0  0  0  0  0  0  0  0  0  0  0
    0.8000   -1.3857    0.0000 C   0  0  0  0  0  0  0  0  0  0  0  0
    2.4000   -1.3857    0.0000 Cl  0  0  0  0  0  0  0  0  0  0  0  0
   -0.0000   -2.7713    0.0000 C   0  0  0  0  0  0  0  0  0  0  0  0
    0.8000   -4.1569    0.0000 H   0  0  0  0  0  0  0  0  0  0  0  0
   -1.6000   -2.7713    0.0000 C   0  0  0  0  0  0  0  0  0  0  0  0
   -2.4000   -4.1569    0.0000 Cl  0  0  0  0  0  0  0  0  0  0  0  0
   -2.4000   -1.3856    0.0000 C   0  0  0  0  0  0  0  0  0  0  0  0
   -4.0000   -1.3856    0.0000 H   0  0  0  0  0  0  0  0  0  0  0  0
   -1.6000   -0.0000    0.0000 C   0  0  0  0  0  0  0  0  0  0  0  0
   -2.4000    1.3856    0.0000 Cl  0  0  0  0  0  0  0  0  0  0  0  0
  1  2  1  0  0  0  0
  1  3  1  0  0  0  0
  3  4  1  0  0  0  0
  4  5  1  0  0  0  0
  4  6  2  0  0  0  0
  6  7  1  0  0  0  0
  6  8  1  0  0  0  0
  8  9  1  0  0  0  0
  8 10  2  0  0  0  0
 10 11  1  0  0  0  0
 10 12  1  0  0  0  0
 12  3  2  0  0  0  0
 12 13  1  0  0  0  0
M  END
> <ChemID>
100311

> <source_casrn>
88-06-2

> <CAS>
88-06-2

> <SMILES>
Oc1c(Cl)cc(Cl)cc1Cl

> <NAME>
2,4,6-TRICHLOROPHENOL

> <preferred_name>
2,4,6-Trichlorophenol

> <iupac>
C6H3Cl3O

> <MPID>
24950

> <dsstox_substance_id>
DTXSID5021386

> <Canonical_QSARr>
Oc1c(Cl)cc(Cl)cc1Cl

> <InChI_Code_QSARr>
InChI=1S/C6H3Cl3O/c7-3-1-4(8)6(10)5(9)2-3/h1-2,10H

> <InChI Key_QSARr>
LINPIYWFGCPVIE-UHFFFAOYSA-N

> <Salt_Solvent>
?

> <LogVP>
-2.0969

$$$$
100315
  -INDIGO-08031723152D

 22 22  0  0  0  0  0  0  0  0999 V2000
    2.4000    1.3857    0.0000 C   0  0  0  0  0  0  0  0  0  0  0  0
    1.6000    2.7713    0.0000 O   0  0  0  0  0  0  0  0  0  0  0  0
    2.4000    4.1569    0.0000 H   0  0  0  0  0  0  0  0  0  0  0  0
    1.6000   -0.0000    0.0000 C   0  0  0  0  0  0  0  0  0  0  0  0
    0.0001   -0.0000    0.0000 C   0  0  0  0  0  0  0  0  0  0  0  0
    0.0001    1.6000    0.0000 H   0  0  0  0  0  0  0  0  0  0  0  0
   -1.5757    0.2778    0.0000 C   0  0  0  0  0  0  0  0  0  0  0  0
   -3.1514    0.5556    0.0000 H   0  0  0  0  0  0  0  0  0  0  0  0
   -2.1229    1.7814    0.0000 H   0  0  0  0  0  0  0  0  0  0  0  0
   -2.6041   -0.9479    0.0000 H   0  0  0  0  0  0  0  0  0  0  0  0
    0.0001   -1.6000    0.0000 C   0  0  0  0  0  0  0  0  0  0  0  0
    0.0001   -3.2000    0.0000 H   0  0  0  0  0  0  0  0  0  0  0  0
   -1.3857   -2.4000    0.0000 H   0  0  0  0  0  0  0  0  0  0  0  0
   -1.3857   -0.8000    0.0000 H   0  0  0  0  0  0  0  0  0  0  0  0
    2.4000   -1.3857    0.0000 C   0  0  0  0  0  0  0  0  0  0  0  0
    1.6000   -2.7713    0.0000 H   0  0  0  0  0  0  0  0  0  0  0  0
    4.0000   -1.3857    0.0000 C   0  0  0  0  0  0  0  0  0  0  0  0
    4.8000   -2.7713    0.0000 H   0  0  0  0  0  0  0  0  0  0  0  0
    4.8000   -0.0000    0.0000 C   0  0  0  0  0  0  0  0  0  0  0  0
    6.4000   -0.0000    0.0000 H   0  0  0  0  0  0  0  0  0  0  0  0
    4.0000    1.3857    0.0000 C   0  0  0  0  0  0  0  0  0  0  0  0
    4.8000    2.7713    0.0000 H   0  0  0  0  0  0  0  0  0  0  0  0
  1  2  1  0  0  0  0
  2  3  1  0  0  0  0
  1  4  1  0  0  0  0
  4  5  1  0  0  0  0
  5  6  1  0  0  0  0
  5  7  1  0  0  0  0
  7  8  1  0  0  0  0
  7  9  1  0  0  0  0
  7 10  1  0  0  0  0
  5 11  1  0  0  0  0
 11 12  1  0  0  0  0
 11 13  1  0  0  0  0
 11 14  1  0  0  0  0
  4 15  2  0  0  0  0
 15 16  1  0  0  0  0
 15 17  1  0  0  0  0
 17 18  1  0  0  0  0
 17 19  2  0  0  0  0
 19 20  1  0  0  0  0
 19 21  1  0  0  0  0
 21  1  2  0  0  0  0
 21 22  1  0  0  0  0
M  END
> <ChemID>
100315

> <source_casrn>
88-69-7

> <CAS>
88-69-7

> <SMILES>
CC(C)c1ccccc1O

> <NAME>
O-ISOPROPYLPHENOL

> <preferred_name>
2-Isopropylphenol

> <iupac>
2-(propan-2-yl)phenol

> <MPID>
24954

> <dsstox_substance_id>
DTXSID2044391

> <Canonical_QSARr>
CC(C)c1ccccc1O

> <InChI_Code_QSARr>
InChI=1S/C9H12O/c1-7(2)8-5-3-4-6-9(8)10/h3-7,10H,1-2H3

> <InChI Key_QSARr>
CRBJBYGJVIBWIY-UHFFFAOYSA-N

> <Salt_Solvent>
?

> <LogVP>
-1.0048

$$$$
100319
  -INDIGO-08031723152D

 15 15  0  0  0  0  0  0  0  0999 V2000
   -1.3856    2.4000    0.0000 O   0  0  0  0  0  0  0  0  0  0  0  0
   -1.3856    4.0000    0.0000 H   0  0  0  0  0  0  0  0  0  0  0  0
    0.0000    1.6000    0.0000 C   0  0  0  0  0  0  0  0  0  0  0  0
    0.0000    0.0000    0.0000 C   0  0  0  0  0  0  0  0  0  0  0  0
   -1.3856   -0.8000    0.0000 N   0  0  0  0  0  0  0  0  0  0  0  0
   -1.3856   -2.4000    0.0000 O   0  0  0  0  0  0  0  0  0  0  0  0
   -2.7713    0.0000    0.0000 O   0  0  0  0  0  0  0  0  0  0  0  0
    1.3856   -0.8000    0.0000 C   0  0  0  0  0  0  0  0  0  0  0  0
    1.3856   -2.4000    0.0000 H   0  0  0  0  0  0  0  0  0  0  0  0
    2.7713    0.0000    0.0000 C   0  0  0  0  0  0  0  0  0  0  0  0
    4.1569   -0.8000    0.0000 H   0  0  0  0  0  0  0  0  0  0  0  0
    2.7713    1.6000    0.0000 C   0  0  0  0  0  0  0  0  0  0  0  0
    4.1569    2.4000    0.0000 H   0  0  0  0  0  0  0  0  0  0  0  0
    1.3856    2.4000    0.0000 C   0  0  0  0  0  0  0  0  0  0  0  0
    1.3856    4.0000    0.0000 H   0  0  0  0  0  0  0  0  0  0  0  0
  1  2  1  0  0  0  0
  1  3  1  0  0  0  0
  3  4  1  0  0  0  0
  4  5  1  0  0  0  0
  5  6  1  0  0  0  0
  5  7  2  0  0  0  0
  4  8  2  0  0  0  0
  8  9  1  0  0  0  0
  8 10  1  0  0  0  0
 10 11  1  0  0  0  0
 10 12  2  0  0  0  0
 12 13  1  0  0  0  0
 12 14  1  0  0  0  0
 14  3  2  0  0  0  0
 14 15  1  0  0  0  0
M  CHG  2   5   1   6  -1
M  END
> <ChemID>
100319

> <source_casrn>
88-75-5

> <CAS>
88-75-5

> <SMILES>
[O-][N+](=O)c1ccccc1O

> <NAME>
2-NITROPHENOL

> <preferred_name>
2-Nitrophenol

> <iupac>
2-nitrophenol

> <MPID>
24958

> <dsstox_substance_id>
DTXSID1021790

> <Canonical_QSARr>
[O-][N+](=O)c1ccccc1O

> <InChI_Code_QSARr>
InChI=1S/C6H5NO3/c8-6-4-2-1-3-5(6)7(9)10/h1-4,8H

> <InChI Key_QSARr>
IQUPABOKLQSFBK-UHFFFAOYSA-N

> <Salt_Solvent>
?

> <LogVP>
-0.9469

$$$$
100323
  -INDIGO-08031723152D

 31 31  0  0  0  0  0  0  0  0999 V2000
   -1.0779    2.9613    0.0000 O   0  0  0  0  0  0  0  0  0  0  0  0
    0.1478    3.9898    0.0000 H   0  0  0  0  0  0  0  0  0  0  0  0
   -0.8000    1.3857    0.0000 C   0  0  0  0  0  0  0  0  0  0  0  0
    0.7036    1.9329    0.0000 H   0  0  0  0  0  0  0  0  0  0  0  0
   -2.4000    1.3857    0.0000 C   0  0  0  0  0  0  0  0  0  0  0  0
   -2.1221    2.9613    0.0000 H   0  0  0  0  0  0  0  0  0  0  0  0
   -3.9036    1.9329    0.0000 H   0  0  0  0  0  0  0  0  0  0  0  0
   -3.2001    0.0000    0.0000 C   0  0  0  0  0  0  0  0  0  0  0  0
   -4.4257    1.0285    0.0000 H   0  0  0  0  0  0  0  0  0  0  0  0
   -4.5856   -0.8001    0.0000 C   0  0  0  0  0  0  0  0  0  0  0  0
   -5.9713   -1.6000    0.0000 H   0  0  0  0  0  0  0  0  0  0  0  0
   -4.5856   -2.4000    0.0000 H   0  0  0  0  0  0  0  0  0  0  0  0
   -5.9713    0.0000    0.0000 H   0  0  0  0  0  0  0  0  0  0  0  0
   -2.4000   -1.3857    0.0000 C   0  0  0  0  0  0  0  0  0  0  0  0
   -3.9036   -1.9329    0.0000 H   0  0  0  0  0  0  0  0  0  0  0  0
   -2.1221   -2.9613    0.0000 H   0  0  0  0  0  0  0  0  0  0  0  0
   -0.8000   -1.3857    0.0000 C   0  0  0  0  0  0  0  0  0  0  0  0
   -1.0779   -2.9613    0.0000 H   0  0  0  0  0  0  0  0  0  0  0  0
   -0.0001   -2.0569    0.0000 H   0  0  0  0  0  0  0  0  0  0  0  0
    0.0001    0.0000    0.0000 C   0  0  0  0  0  0  0  0  0  0  0  0
    1.2257    1.0285    0.0000 H   0  0  0  0  0  0  0  0  0  0  0  0
    1.2257   -1.0285    0.0000 C   0  0  0  0  0  0  0  0  0  0  0  0
    0.7036   -1.9329    0.0000 H   0  0  0  0  0  0  0  0  0  0  0  0
    2.0257   -2.4141    0.0000 C   0  0  0  0  0  0  0  0  0  0  0  0
    2.8257   -3.7997    0.0000 H   0  0  0  0  0  0  0  0  0  0  0  0
    3.6257   -2.4141    0.0000 H   0  0  0  0  0  0  0  0  0  0  0  0
    1.2257   -3.7997    0.0000 H   0  0  0  0  0  0  0  0  0  0  0  0
    2.6113   -0.2285    0.0000 C   0  0  0  0  0  0  0  0  0  0  0  0
    3.9970    0.5716    0.0000 H   0  0  0  0  0  0  0  0  0  0  0  0
    2.6113    1.3715    0.0000 H   0  0  0  0  0  0  0  0  0  0  0  0
    3.9970   -1.0285    0.0000 H   0  0  0  0  0  0  0  0  0  0  0  0
  1  2  1  0  0  0  0
  1  3  1  0  0  0  0
  3  4  1  0  0  0  0
  3  5  1  0  0  0  0
  5  6  1  0  0  0  0
  5  7  1  0  0  0  0
  5  8  1  0  0  0  0
  8  9  1  0  0  0  0
  8 10  1  0  0  0  0
 10 11  1  0  0  0  0
 10 12  1  0  0  0  0
 10 13  1  0  0  0  0
  8 14  1  0  0  0  0
 14 15  1  0  0  0  0
 14 16  1  0  0  0  0
 14 17  1  0  0  0  0
 17 18  1  0  0  0  0
 17 19  1  0  0  0  0
 17 20  1  0  0  0  0
 20  3  1  0  0  0  0
 20 21  1  0  0  0  0
 20 22  1  0  0  0  0
 22 23  1  0  0  0  0
 22 24  1  0  0  0  0
 24 25  1  0  0  0  0
 24 26  1  0  0  0  0
 24 27  1  0  0  0  0
 22 28  1  0  0  0  0
 28 29  1  0  0  0  0
 28 30  1  0  0  0  0
 28 31  1  0  0  0  0
M  END
> <ChemID>
100323

> <source_casrn>
89-78-1|2216-51-5

> <CAS>
1490-04-6|2216-51-5

> <SMILES>
CC(C)C1CCC(C)CC1O

> <NAME>
MENTHOL, MENTHOL (L)

> <preferred_name>
Menthol

> <iupac>
5-methyl-2-(propan-2-yl)cyclohexanol

> <MPID>
24962|26657

> <dsstox_substance_id>
DTXSID8029650|DTXSID1022180

> <Canonical_QSARr>
CC(C)C1CCC(C)CC1O

> <InChI_Code_QSARr>
InChI=1S/C10H20O/c1-7(2)9-5-4-8(3)6-10(9)11/h7-11H,4-6H2,1-3H3

> <InChI Key_QSARr>
NOOLISFMXDJSKH-UHFFFAOYSA-N

> <Salt_Solvent>
?

> <LogVP>
-1.07645

$$$$
100327
  -INDIGO-08031723152D

 14 14  0  0  0  0  0  0  0  0999 V2000
    2.4000   -1.3856    0.0000 O   0  0  0  0  0  0  0  0  0  0  0  0
    1.6000   -0.0000    0.0000 C   0  0  0  0  0  0  0  0  0  0  0  0
    2.4000    1.3856    0.0000 H   0  0  0  0  0  0  0  0  0  0  0  0
    0.0000   -0.0000    0.0000 C   0  0  0  0  0  0  0  0  0  0  0  0
   -0.8000    1.3856    0.0000 C   0  0  0  0  0  0  0  0  0  0  0  0
    0.0000    2.7713    0.0000 Cl  0  0  0  0  0  0  0  0  0  0  0  0
   -2.4000    1.3856    0.0000 C   0  0  0  0  0  0  0  0  0  0  0  0
   -3.2000    2.7713    0.0000 H   0  0  0  0  0  0  0  0  0  0  0  0
   -3.2000   -0.0000    0.0000 C   0  0  0  0  0  0  0  0  0  0  0  0
   -4.8000   -0.0000    0.0000 H   0  0  0  0  0  0  0  0  0  0  0  0
   -2.4000   -1.3856    0.0000 C   0  0  0  0  0  0  0  0  0  0  0  0
   -3.2000   -2.7713    0.0000 H   0  0  0  0  0  0  0  0  0  0  0  0
   -0.8000   -1.3856    0.0000 C   0  0  0  0  0  0  0  0  0  0  0  0
    0.0000   -2.7713    0.0000 H   0  0  0  0  0  0  0  0  0  0  0  0
  1  2  2  0  0  0  0
  2  3  1  0  0  0  0
  2  4  1  0  0  0  0
  4  5  1  0  0  0  0
  5  6  1  0  0  0  0
  5  7  2  0  0  0  0
  7  8  1  0  0  0  0
  7  9  1  0  0  0  0
  9 10  1  0  0  0  0
  9 11  2  0  0  0  0
 11 12  1  0  0  0  0
 11 13  1  0  0  0  0
 13  4  2  0  0  0  0
 13 14  1  0  0  0  0
M  END
> <ChemID>
100327

> <source_casrn>
89-98-5

> <CAS>
89-98-5

> <SMILES>
O=Cc1ccccc1Cl

> <NAME>
2-CHLOROBENZALDEHYDE

> <preferred_name>
2-Chlorobenzaldehyde

> <iupac>
2-chlorobenzaldehyde

> <MPID>
24966

> <dsstox_substance_id>
DTXSID5024764

> <Canonical_QSARr>
O=Cc1ccccc1Cl

> <InChI_Code_QSARr>
InChI=1S/C7H5ClO/c8-7-4-2-1-3-6(7)5-9/h1-5H

> <InChI Key_QSARr>
FPYUJUBAXZAQNL-UHFFFAOYSA-N

> <Salt_Solvent>
?

> <LogVP>
-0.6383

$$$$
100331
  -INDIGO-08031723152D

 17 17  0  0  0  0  0  0  0  0999 V2000
    2.4000    1.3856    0.0000 C   0  0  0  0  0  0  0  0  0  0  0  0
    3.2001    2.7713    0.0000 H   0  0  0  0  0  0  0  0  0  0  0  0
    3.2001    0.0000    0.0000 C   0  0  0  0  0  0  0  0  0  0  0  0
    4.8000    0.0000    0.0000 H   0  0  0  0  0  0  0  0  0  0  0  0
    2.4000   -1.3856    0.0000 C   0  0  0  0  0  0  0  0  0  0  0  0
    3.2001   -2.7713    0.0000 H   0  0  0  0  0  0  0  0  0  0  0  0
    0.8000   -1.3856    0.0000 C   0  0  0  0  0  0  0  0  0  0  0  0
    0.0000   -2.7713    0.0000 H   0  0  0  0  0  0  0  0  0  0  0  0
    0.0000    0.0000    0.0000 C   0  0  0  0  0  0  0  0  0  0  0  0
   -1.6000    0.0000    0.0000 O   0  0  0  0  0  0  0  0  0  0  0  0
   -2.4001   -1.3856    0.0000 C   0  0  0  0  0  0  0  0  0  0  0  0
   -4.0000   -1.3856    0.0000 H   0  0  0  0  0  0  0  0  0  0  0  0
   -3.2000   -2.7713    0.0000 H   0  0  0  0  0  0  0  0  0  0  0  0
   -3.2000    0.0000    0.0000 H   0  0  0  0  0  0  0  0  0  0  0  0
    0.8000    1.3856    0.0000 C   0  0  0  0  0  0  0  0  0  0  0  0
    0.0000    2.7713    0.0000 O   0  0  0  0  0  0  0  0  0  0  0  0
    0.8000    4.1569    0.0000 H   0  0  0  0  0  0  0  0  0  0  0  0
  1  2  1  0  0  0  0
  1  3  1  0  0  0  0
  3  4  1  0  0  0  0
  3  5  2  0  0  0  0
  5  6  1  0  0  0  0
  5  7  1  0  0  0  0
  7  8  1  0  0  0  0
  7  9  2  0  0  0  0
  9 10  1  0  0  0  0
 10 11  1  0  0  0  0
 11 12  1  0  0  0  0
 11 13  1  0  0  0  0
 11 14  1  0  0  0  0
  9 15  1  0  0  0  0
 15  1  2  0  0  0  0
 15 16  1  0  0  0  0
 16 17  1  0  0  0  0
M  END
> <ChemID>
100331

> <source_casrn>
90-05-1

> <CAS>
90-05-1

> <SMILES>
COc1ccccc1O

> <NAME>
2-METHOXYPHENOL

> <preferred_name>
2-Methoxyphenol

> <iupac>
2-methoxyphenol

> <MPID>
24970

> <dsstox_substance_id>
DTXSID0023113

> <Canonical_QSARr>
COc1ccccc1O

> <InChI_Code_QSARr>
InChI=1S/C7H8O2/c1-9-7-5-3-2-4-6(7)8/h2-5,8H,1H3

> <InChI Key_QSARr>
LHGVFZTZFXWLCP-UHFFFAOYSA-N

> <Salt_Solvent>
?

> <LogVP>
-0.9872

$$$$
100335
  -INDIGO-08031723152D

 19 20  0  0  0  0  0  0  0  0999 V2000
    2.4001    1.3856    0.0000 O   0  0  0  0  0  0  0  0  0  0  0  0
    4.0000    1.3856    0.0000 H   0  0  0  0  0  0  0  0  0  0  0  0
    1.6000    0.0000    0.0000 C   0  0  0  0  0  0  0  0  0  0  0  0
    2.4001   -1.3856    0.0000 C   0  0  0  0  0  0  0  0  0  0  0  0
    4.0000   -1.3856    0.0000 H   0  0  0  0  0  0  0  0  0  0  0  0
    1.6000   -2.7713    0.0000 C   0  0  0  0  0  0  0  0  0  0  0  0
    2.4001   -4.1569    0.0000 H   0  0  0  0  0  0  0  0  0  0  0  0
   -0.0000   -2.7713    0.0000 C   0  0  0  0  0  0  0  0  0  0  0  0
   -0.8000   -4.1569    0.0000 H   0  0  0  0  0  0  0  0  0  0  0  0
   -0.8000   -1.3856    0.0000 C   0  0  0  0  0  0  0  0  0  0  0  0
   -0.0000    0.0000    0.0000 C   0  0  0  0  0  0  0  0  0  0  0  0
   -0.8000    1.3856    0.0000 C   0  0  0  0  0  0  0  0  0  0  0  0
   -0.0000    2.7713    0.0000 H   0  0  0  0  0  0  0  0  0  0  0  0
   -2.4000    1.3856    0.0000 C   0  0  0  0  0  0  0  0  0  0  0  0
   -3.2001    2.7713    0.0000 H   0  0  0  0  0  0  0  0  0  0  0  0
   -3.2001    0.0000    0.0000 C   0  0  0  0  0  0  0  0  0  0  0  0
   -4.8000    0.0000    0.0000 H   0  0  0  0  0  0  0  0  0  0  0  0
   -2.4000   -1.3856    0.0000 C   0  0  0  0  0  0  0  0  0  0  0  0
   -3.2001   -2.7713    0.0000 H   0  0  0  0  0  0  0  0  0  0  0  0
  1  2  1  0  0  0  0
  1  3  1  0  0  0  0
  3  4  1  0  0  0  0
  4  5  1  0  0  0  0
  4  6  2  0  0  0  0
  6  7  1  0  0  0  0
  6  8  1  0  0  0  0
  8  9  1  0  0  0  0
  8 10  2  0  0  0  0
 10 11  1  0  0  0  0
 11  3  2  0  0  0  0
 11 12  1  0  0  0  0
 12 13  1  0  0  0  0
 12 14  2  0  0  0  0
 14 15  1  0  0  0  0
 14 16  1  0  0  0  0
 16 17  1  0  0  0  0
 16 18  2  0  0  0  0
 18 10  1  0  0  0  0
 18 19  1  0  0  0  0
M  END
> <ChemID>
100335

> <source_casrn>
90-15-3

> <CAS>
90-15-3

> <SMILES>
Oc1cccc2ccccc21

> <NAME>
1-NAPHTHOL

> <preferred_name>
1-Naphthol

> <iupac>
naphthalen-1-ol

> <MPID>
24974

> <dsstox_substance_id>
DTXSID6021793

> <Canonical_QSARr>
Oc1cccc2ccccc21

> <InChI_Code_QSARr>
InChI=1S/C10H8O/c11-10-7-3-5-8-4-1-2-6-9(8)10/h1-7,11H

> <InChI Key_QSARr>
KJCVRFUGPWSIIH-UHFFFAOYSA-N

> <Salt_Solvent>
?

> <LogVP>
-3.5622

$$$$
100339
  -INDIGO-08031723152D

 20 20  0  0  0  0  0  0  0  0999 V2000
    0.0000    0.0000    0.0000 C   0  0  0  0  0  0  0  0  0  0  0  0
    0.8000    1.3856    0.0000 O   0  0  0  0  0  0  0  0  0  0  0  0
    2.4001    1.3856    0.0000 C   0  0  0  0  0  0  0  0  0  0  0  0
    3.2000    2.7713    0.0000 H   0  0  0  0  0  0  0  0  0  0  0  0
    4.0000    1.3856    0.0000 H   0  0  0  0  0  0  0  0  0  0  0  0
    1.6000    2.7713    0.0000 H   0  0  0  0  0  0  0  0  0  0  0  0
   -1.6000    0.0000    0.0000 C   0  0  0  0  0  0  0  0  0  0  0  0
   -2.4000    1.3856    0.0000 O   0  0  0  0  0  0  0  0  0  0  0  0
   -4.0001    1.3856    0.0000 C   0  0  0  0  0  0  0  0  0  0  0  0
   -4.8000    2.7713    0.0000 H   0  0  0  0  0  0  0  0  0  0  0  0
   -5.6000    1.3856    0.0000 H   0  0  0  0  0  0  0  0  0  0  0  0
   -3.2000    2.7713    0.0000 H   0  0  0  0  0  0  0  0  0  0  0  0
   -2.4000   -1.3856    0.0000 C   0  0  0  0  0  0  0  0  0  0  0  0
   -3.9999   -1.3856    0.0000 H   0  0  0  0  0  0  0  0  0  0  0  0
   -1.6000   -2.7713    0.0000 C   0  0  0  0  0  0  0  0  0  0  0  0
   -2.4000   -4.1569    0.0000 H   0  0  0  0  0  0  0  0  0  0  0  0
    0.0000   -2.7713    0.0000 C   0  0  0  0  0  0  0  0  0  0  0  0
    0.8000   -4.1569    0.0000 H   0  0  0  0  0  0  0  0  0  0  0  0
    0.8000   -1.3856    0.0000 C   0  0  0  0  0  0  0  0  0  0  0  0
    2.4001   -1.3856    0.0000 H   0  0  0  0  0  0  0  0  0  0  0  0
  1  2  1  0  0  0  0
  2  3  1  0  0  0  0
  3  4  1  0  0  0  0
  3  5  1  0  0  0  0
  3  6  1  0  0  0  0
  1  7  1  0  0  0  0
  7  8  1  0  0  0  0
  8  9  1  0  0  0  0
  9 10  1  0  0  0  0
  9 11  1  0  0  0  0
  9 12  1  0  0  0  0
  7 13  2  0  0  0  0
 13 14  1  0  0  0  0
 13 15  1  0  0  0  0
 15 16  1  0  0  0  0
 15 17  2  0  0  0  0
 17 18  1  0  0  0  0
 17 19  1  0  0  0  0
 19  1  2  0  0  0  0
 19 20  1  0  0  0  0
M  END
> <ChemID>
100339

> <source_casrn>
91-16-7

> <CAS>
91-16-7

> <SMILES>
COc1ccccc1OC

> <NAME>
1,2-DIMETHOXYBENZENE

> <preferred_name>
1,2-Dimethoxybenzene

> <iupac>
1,2-dimethoxybenzene

> <MPID>
24978

> <dsstox_substance_id>
DTXSID7047065

> <Canonical_QSARr>
COc1ccccc1OC

> <InChI_Code_QSARr>
InChI=1S/C8H10O2/c1-9-7-5-3-4-6-8(7)10-2/h3-6H,1-2H3

> <InChI Key_QSARr>
ABDKAPXRBAPSQN-UHFFFAOYSA-N

> <Salt_Solvent>
?

> <LogVP>
-0.3279

$$$$
100343
  -INDIGO-08031723152D

 18 18  0  0  0  0  0  0  0  0999 V2000
    2.4001   -1.3856    0.0000 C   0  0  0  0  0  0  0  0  0  0  0  0
    4.0000   -1.3856    0.0000 H   0  0  0  0  0  0  0  0  0  0  0  0
    3.2000   -2.7713    0.0000 H   0  0  0  0  0  0  0  0  0  0  0  0
    3.2000    0.0000    0.0000 H   0  0  0  0  0  0  0  0  0  0  0  0
    1.6000    0.0000    0.0000 O   0  0  0  0  0  0  0  0  0  0  0  0
   -0.0000    0.0000    0.0000 C   0  0  0  0  0  0  0  0  0  0  0  0
   -0.8000    1.3856    0.0000 C   0  0  0  0  0  0  0  0  0  0  0  0
   -0.0000    2.7713    0.0000 N   0  0  0  0  0  0  0  0  0  0  0  0
   -0.8000    4.1569    0.0000 O   0  0  0  0  0  0  0  0  0  0  0  0
    1.6000    2.7713    0.0000 O   0  0  0  0  0  0  0  0  0  0  0  0
   -2.4000    1.3856    0.0000 C   0  0  0  0  0  0  0  0  0  0  0  0
   -3.2001    2.7713    0.0000 H   0  0  0  0  0  0  0  0  0  0  0  0
   -3.2001    0.0000    0.0000 C   0  0  0  0  0  0  0  0  0  0  0  0
   -4.8000    0.0000    0.0000 H   0  0  0  0  0  0  0  0  0  0  0  0
   -2.4000   -1.3856    0.0000 C   0  0  0  0  0  0  0  0  0  0  0  0
   -3.2001   -2.7713    0.0000 H   0  0  0  0  0  0  0  0  0  0  0  0
   -0.8000   -1.3856    0.0000 C   0  0  0  0  0  0  0  0  0  0  0  0
   -0.0000   -2.7713    0.0000 H   0  0  0  0  0  0  0  0  0  0  0  0
  1  2  1  0  0  0  0
  1  3  1  0  0  0  0
  1  4  1  0  0  0  0
  1  5  1  0  0  0  0
  5  6  1  0  0  0  0
  6  7  1  0  0  0  0
  7  8  1  0  0  0  0
  8  9  2  0  0  0  0
  8 10  1  0  0  0  0
  7 11  2  0  0  0  0
 11 12  1  0  0  0  0
 11 13  1  0  0  0  0
 13 14  1  0  0  0  0
 13 15  2  0  0  0  0
 15 16  1  0  0  0  0
 15 17  1  0  0  0  0
 17  6  2  0  0  0  0
 17 18  1  0  0  0  0
M  CHG  2   8   1  10  -1
M  END
> <ChemID>
100343

> <source_casrn>
91-23-6

> <CAS>
91-23-6

> <SMILES>
COc1ccccc1[N+]([O-])=O

> <NAME>
2-NITROANISOLE

> <preferred_name>
1-Methoxy-2-nitrobenzene

> <iupac>
1-methoxy-2-nitrobenzene

> <MPID>
24982

> <dsstox_substance_id>
DTXSID3020962

> <Canonical_QSARr>
COc1ccccc1[N+]([O-])=O

> <InChI_Code_QSARr>
InChI=1S/C7H7NO3/c1-11-7-5-3-2-4-6(7)8(9)10/h2-5H,1H3

> <InChI Key_QSARr>
CFBYEGUGFPZCNF-UHFFFAOYSA-N

> <Salt_Solvent>
?

> <LogVP>
-2.4437

$$$$
100347
  -INDIGO-08031723152D

 20 21  0  0  0  0  0  0  0  0999 V2000
   -0.0001   -0.0000    0.0000 C   0  0  0  0  0  0  0  0  0  0  0  0
    1.3857    0.8000    0.0000 C   0  0  0  0  0  0  0  0  0  0  0  0
    1.3857    2.4000    0.0000 H   0  0  0  0  0  0  0  0  0  0  0  0
    2.7713   -0.0000    0.0000 C   0  0  0  0  0  0  0  0  0  0  0  0
    4.1569    0.8000    0.0000 N   0  0  0  0  0  0  0  0  0  0  0  0
    5.5426   -0.0000    0.0000 H   0  0  0  0  0  0  0  0  0  0  0  0
    4.1569    2.4000    0.0000 H   0  0  0  0  0  0  0  0  0  0  0  0
    2.7713   -1.6000    0.0000 C   0  0  0  0  0  0  0  0  0  0  0  0
    4.1569   -2.4000    0.0000 H   0  0  0  0  0  0  0  0  0  0  0  0
    1.3857   -2.4000    0.0000 C   0  0  0  0  0  0  0  0  0  0  0  0
    1.3857   -4.0000    0.0000 H   0  0  0  0  0  0  0  0  0  0  0  0
   -0.0001   -1.6000    0.0000 C   0  0  0  0  0  0  0  0  0  0  0  0
   -1.3857   -2.4000    0.0000 C   0  0  0  0  0  0  0  0  0  0  0  0
   -1.3857   -4.0000    0.0000 H   0  0  0  0  0  0  0  0  0  0  0  0
   -2.7713   -1.6000    0.0000 C   0  0  0  0  0  0  0  0  0  0  0  0
   -4.1569   -2.4000    0.0000 H   0  0  0  0  0  0  0  0  0  0  0  0
   -2.7713   -0.0000    0.0000 C   0  0  0  0  0  0  0  0  0  0  0  0
   -4.1569    0.8000    0.0000 H   0  0  0  0  0  0  0  0  0  0  0  0
   -1.3857    0.8000    0.0000 C   0  0  0  0  0  0  0  0  0  0  0  0
   -1.3857    2.4000    0.0000 H   0  0  0  0  0  0  0  0  0  0  0  0
  1  2  1  0  0  0  0
  2  3  1  0  0  0  0
  2  4  2  0  0  0  0
  4  5  1  0  0  0  0
  5  6  1  0  0  0  0
  5  7  1  0  0  0  0
  4  8  1  0  0  0  0
  8  9  1  0  0  0  0
  8 10  2  0  0  0  0
 10 11  1  0  0  0  0
 10 12  1  0  0  0  0
 12  1  1  0  0  0  0
 12 13  2  0  0  0  0
 13 14  1  0  0  0  0
 13 15  1  0  0  0  0
 15 16  1  0  0  0  0
 15 17  2  0  0  0  0
 17 18  1  0  0  0  0
 17 19  1  0  0  0  0
 19  1  2  0  0  0  0
 19 20  1  0  0  0  0
M  END
> <ChemID>
100347

> <source_casrn>
91-59-8

> <CAS>
91-59-8

> <SMILES>
Nc1cc2ccccc2cc1

> <NAME>
2-NAPHTHYLAMINE

> <preferred_name>
2-Naphthylamine

> <iupac>
naphthalen-2-amine

> <MPID>
24986

> <dsstox_substance_id>
DTXSID2020921

> <Canonical_QSARr>
Nc1cc2ccccc2cc1

> <InChI_Code_QSARr>
InChI=1S/C10H9N/c11-10-6-5-8-3-1-2-4-9(8)7-10/h1-7H,11H2

> <InChI Key_QSARr>
JBIJLHTVPXGSAM-UHFFFAOYSA-N

> <Salt_Solvent>
?

> <LogVP>
-3.5918

$$$$
100351
  -INDIGO-08031723152D

 26 26  0  0  0  0  0  0  0  0999 V2000
    2.4001    1.3856    0.0000 C   0  0  0  0  0  0  0  0  0  0  0  0
    3.2000    2.7712    0.0000 H   0  0  0  0  0  0  0  0  0  0  0  0
    4.0000    1.3856    0.0000 H   0  0  0  0  0  0  0  0  0  0  0  0
    1.6001    2.7712    0.0000 H   0  0  0  0  0  0  0  0  0  0  0  0
    0.7999    1.3856    0.0000 C   0  0  0  0  0  0  0  0  0  0  0  0
   -0.4693    2.3596    0.0000 H   0  0  0  0  0  0  0  0  0  0  0  0
    0.5911    2.9720    0.0000 H   0  0  0  0  0  0  0  0  0  0  0  0
   -0.0000    0.0000    0.0000 N   0  0  0  0  0  0  0  0  0  0  0  0
    0.7999   -1.3856    0.0000 C   0  0  0  0  0  0  0  0  0  0  0  0
    0.5911   -2.9720    0.0000 H   0  0  0  0  0  0  0  0  0  0  0  0
   -0.4693   -2.3596    0.0000 H   0  0  0  0  0  0  0  0  0  0  0  0
    2.4001   -1.3856    0.0000 C   0  0  0  0  0  0  0  0  0  0  0  0
    4.0000   -1.3856    0.0000 H   0  0  0  0  0  0  0  0  0  0  0  0
    3.2000   -2.7712    0.0000 H   0  0  0  0  0  0  0  0  0  0  0  0
    1.6001   -2.7712    0.0000 H   0  0  0  0  0  0  0  0  0  0  0  0
   -1.6000    0.0000    0.0000 C   0  0  0  0  0  0  0  0  0  0  0  0
   -2.4000    1.3856    0.0000 C   0  0  0  0  0  0  0  0  0  0  0  0
   -1.6000    2.7713    0.0000 H   0  0  0  0  0  0  0  0  0  0  0  0
   -4.0001    1.3856    0.0000 C   0  0  0  0  0  0  0  0  0  0  0  0
   -4.8000    2.7713    0.0000 H   0  0  0  0  0  0  0  0  0  0  0  0
   -4.8000    0.0000    0.0000 C   0  0  0  0  0  0  0  0  0  0  0  0
   -6.4000    0.0000    0.0000 H   0  0  0  0  0  0  0  0  0  0  0  0
   -4.0001   -1.3856    0.0000 C   0  0  0  0  0  0  0  0  0  0  0  0
   -4.8000   -2.7712    0.0000 H   0  0  0  0  0  0  0  0  0  0  0  0
   -2.4000   -1.3856    0.0000 C   0  0  0  0  0  0  0  0  0  0  0  0
   -1.6000   -2.7712    0.0000 H   0  0  0  0  0  0  0  0  0  0  0  0
  1  2  1  0  0  0  0
  1  3  1  0  0  0  0
  1  4  1  0  0  0  0
  1  5  1  0  0  0  0
  5  6  1  0  0  0  0
  5  7  1  0  0  0  0
  5  8  1  0  0  0  0
  8  9  1  0  0  0  0
  9 10  1  0  0  0  0
  9 11  1  0  0  0  0
  9 12  1  0  0  0  0
 12 13  1  0  0  0  0
 12 14  1  0  0  0  0
 12 15  1  0  0  0  0
  8 16  1  0  0  0  0
 16 17  1  0  0  0  0
 17 18  1  0  0  0  0
 17 19  2  0  0  0  0
 19 20  1  0  0  0  0
 19 21  1  0  0  0  0
 21 22  1  0  0  0  0
 21 23  2  0  0  0  0
 23 24  1  0  0  0  0
 23 25  1  0  0  0  0
 25 16  2  0  0  0  0
 25 26  1  0  0  0  0
M  END
> <ChemID>
100351

> <source_casrn>
91-66-7

> <CAS>
91-66-7

> <SMILES>
CCN(CC)c1ccccc1

> <NAME>
N,N-DIETHYLANILINE

> <preferred_name>
N,N-Diethylaniline

> <iupac>
N,N-diethylaniline

> <MPID>
24990

> <dsstox_substance_id>
DTXSID8021800

> <Canonical_QSARr>
CCN(CC)c1ccccc1

> <InChI_Code_QSARr>
InChI=1S/C10H15N/c1-3-11(4-2)10-8-6-5-7-9-10/h5-9H,3-4H2,1-2H3

> <InChI Key_QSARr>
GGSUCNLOZRCGPQ-UHFFFAOYSA-N

> <Salt_Solvent>
?

> <LogVP>
-0.8655

$$$$
100355
  -INDIGO-08031723152D

 22 23  0  0  0  0  0  0  0  0999 V2000
   -0.8001    1.3856    0.0000 C   0  0  0  0  0  0  0  0  0  0  0  0
   -0.0001    2.7713    0.0000 H   0  0  0  0  0  0  0  0  0  0  0  0
   -0.0001   -0.0000    0.0000 C   0  0  0  0  0  0  0  0  0  0  0  0
    1.6001    0.0000    0.0000 C   0  0  0  0  0  0  0  0  0  0  0  0
    2.4001    1.3856    0.0000 C   0  0  0  0  0  0  0  0  0  0  0  0
    1.6001    2.7713    0.0000 H   0  0  0  0  0  0  0  0  0  0  0  0
    4.0000    1.3856    0.0000 C   0  0  0  0  0  0  0  0  0  0  0  0
    4.8000    2.7713    0.0000 H   0  0  0  0  0  0  0  0  0  0  0  0
    4.8000    0.0000    0.0000 C   0  0  0  0  0  0  0  0  0  0  0  0
    6.4000    0.0000    0.0000 H   0  0  0  0  0  0  0  0  0  0  0  0
    4.0000   -1.3856    0.0000 C   0  0  0  0  0  0  0  0  0  0  0  0
    4.8000   -2.7713    0.0000 H   0  0  0  0  0  0  0  0  0  0  0  0
    2.4001   -1.3856    0.0000 C   0  0  0  0  0  0  0  0  0  0  0  0
    1.6001   -2.7713    0.0000 H   0  0  0  0  0  0  0  0  0  0  0  0
   -0.8001   -1.3856    0.0000 C   0  0  0  0  0  0  0  0  0  0  0  0
   -0.0001   -2.7713    0.0000 H   0  0  0  0  0  0  0  0  0  0  0  0
   -2.4000   -1.3856    0.0000 C   0  0  0  0  0  0  0  0  0  0  0  0
   -3.2000   -2.7713    0.0000 H   0  0  0  0  0  0  0  0  0  0  0  0
   -3.2000   -0.0000    0.0000 C   0  0  0  0  0  0  0  0  0  0  0  0
   -4.8000   -0.0000    0.0000 H   0  0  0  0  0  0  0  0  0  0  0  0
   -2.4000    1.3856    0.0000 C   0  0  0  0  0  0  0  0  0  0  0  0
   -3.2000    2.7713    0.0000 H   0  0  0  0  0  0  0  0  0  0  0  0
  1  2  1  0  0  0  0
  1  3  1  0  0  0  0
  3  4  1  0  0  0  0
  4  5  1  0  0  0  0
  5  6  1  0  0  0  0
  5  7  2  0  0  0  0
  7  8  1  0  0  0  0
  7  9  1  0  0  0  0
  9 10  1  0  0  0  0
  9 11  2  0  0  0  0
 11 12  1  0  0  0  0
 11 13  1  0  0  0  0
 13  4  2  0  0  0  0
 13 14  1  0  0  0  0
  3 15  2  0  0  0  0
 15 16  1  0  0  0  0
 15 17  1  0  0  0  0
 17 18  1  0  0  0  0
 17 19  2  0  0  0  0
 19 20  1  0  0  0  0
 19 21  1  0  0  0  0
 21  1  2  0  0  0  0
 21 22  1  0  0  0  0
M  END
> <ChemID>
100355

> <source_casrn>
92-52-4

> <CAS>
92-52-4

> <SMILES>
c1ccccc1-c1ccccc1

> <NAME>
BIPHENYL

> <preferred_name>
Biphenyl

> <iupac>
biphenyl

> <MPID>
24994

> <dsstox_substance_id>
DTXSID4020161

> <Canonical_QSARr>
c1ccccc1-c1ccccc1

> <InChI_Code_QSARr>
InChI=1S/C12H10/c1-3-7-11(8-4-1)12-9-5-2-6-10-12/h1-10H

> <InChI Key_QSARr>
ZUOUZKKEUPVFJK-UHFFFAOYSA-N

> <Salt_Solvent>
?

> <LogVP>
-2.0491

$$$$
100359
  -INDIGO-08031723152D

 23 23  0  0  0  0  0  0  0  0999 V2000
    3.2000    2.7712    0.0000 C   0  0  0  0  0  0  0  0  0  0  0  0
    4.8000    2.7712    0.0000 H   0  0  0  0  0  0  0  0  0  0  0  0
    4.0000    4.1569    0.0000 H   0  0  0  0  0  0  0  0  0  0  0  0
    4.0000    1.3856    0.0000 H   0  0  0  0  0  0  0  0  0  0  0  0
    2.4000    1.3856    0.0000 O   0  0  0  0  0  0  0  0  0  0  0  0
    0.8001    1.3856    0.0000 C   0  0  0  0  0  0  0  0  0  0  0  0
    0.0001    2.7713    0.0000 C   0  0  0  0  0  0  0  0  0  0  0  0
    0.8001    4.1569    0.0000 H   0  0  0  0  0  0  0  0  0  0  0  0
   -1.6001    2.7713    0.0000 C   0  0  0  0  0  0  0  0  0  0  0  0
   -2.4001    4.1569    0.0000 H   0  0  0  0  0  0  0  0  0  0  0  0
   -2.4001    1.3856    0.0000 C   0  0  0  0  0  0  0  0  0  0  0  0
   -4.0000    1.3856    0.0000 C   0  0  0  0  0  0  0  0  0  0  0  0
   -4.8000   -0.0001    0.0000 O   0  0  0  0  0  0  0  0  0  0  0  0
   -4.8000    2.7713    0.0000 O   0  0  0  0  0  0  0  0  0  0  0  0
   -6.4000    2.7713    0.0000 H   0  0  0  0  0  0  0  0  0  0  0  0
   -1.6001    0.0001    0.0000 C   0  0  0  0  0  0  0  0  0  0  0  0
   -2.4001   -1.3856    0.0000 H   0  0  0  0  0  0  0  0  0  0  0  0
    0.0001    0.0001    0.0000 C   0  0  0  0  0  0  0  0  0  0  0  0
    0.8001   -1.3856    0.0000 O   0  0  0  0  0  0  0  0  0  0  0  0
    0.0001   -2.7712    0.0000 C   0  0  0  0  0  0  0  0  0  0  0  0
    0.8001   -4.1569    0.0000 H   0  0  0  0  0  0  0  0  0  0  0  0
   -0.7999   -4.1569    0.0000 H   0  0  0  0  0  0  0  0  0  0  0  0
    1.6000   -2.7712    0.0000 H   0  0  0  0  0  0  0  0  0  0  0  0
  1  2  1  0  0  0  0
  1  3  1  0  0  0  0
  1  4  1  0  0  0  0
  1  5  1  0  0  0  0
  5  6  1  0  0  0  0
  6  7  1  0  0  0  0
  7  8  1  0  0  0  0
  7  9  2  0  0  0  0
  9 10  1  0  0  0  0
  9 11  1  0  0  0  0
 11 12  1  0  0  0  0
 12 13  2  0  0  0  0
 12 14  1  0  0  0  0
 14 15  1  0  0  0  0
 11 16  2  0  0  0  0
 16 17  1  0  0  0  0
 16 18  1  0  0  0  0
 18  6  2  0  0  0  0
 18 19  1  0  0  0  0
 19 20  1  0  0  0  0
 20 21  1  0  0  0  0
 20 22  1  0  0  0  0
 20 23  1  0  0  0  0
M  END
> <ChemID>
100359

> <source_casrn>
93-07-2

> <CAS>
93-07-2

> <SMILES>
COc1ccc(cc1OC)C(O)=O

> <NAME>
3,4-DIMETHOXYBENZOIC ACID

> <preferred_name>
Benzoic acid, 3,4-dimethoxy-

> <iupac>
3,4-Dimethoxybenzoic acid

> <MPID>
24998

> <dsstox_substance_id>
DTXSID6059077

> <Canonical_QSARr>
COc1ccc(cc1OC)C(O)=O

> <InChI_Code_QSARr>
InChI=1S/C9H10O4/c1-12-7-4-3-6(9(10)11)5-8(7)13-2/h3-5H,1-2H3,(H,10,11)

> <InChI Key_QSARr>
DAUAQNGYDSHRET-UHFFFAOYSA-N

> <Salt_Solvent>
?

> <LogVP>
-3.6082

$$$$
100363
  -INDIGO-08031723152D

 29 29  0  0  0  0  0  0  0  0999 V2000
   -0.8000    1.3857    0.0000 C   0  0  0  0  0  0  0  0  0  0  0  0
    0.0000    2.7713    0.0000 H   0  0  0  0  0  0  0  0  0  0  0  0
    0.0000    0.0000    0.0000 C   0  0  0  0  0  0  0  0  0  0  0  0
    1.6000    0.0000    0.0000 C   0  0  0  0  0  0  0  0  0  0  0  0
    1.8088   -1.5863    0.0000 H   0  0  0  0  0  0  0  0  0  0  0  0
    2.8694   -0.9740    0.0000 H   0  0  0  0  0  0  0  0  0  0  0  0
    2.4000    1.3856    0.0000 C   0  0  0  0  0  0  0  0  0  0  0  0
    1.6000    2.7713    0.0000 H   0  0  0  0  0  0  0  0  0  0  0  0
    4.0000    1.3856    0.0000 C   0  0  0  0  0  0  0  0  0  0  0  0
    4.8000    2.7713    0.0000 H   0  0  0  0  0  0  0  0  0  0  0  0
    4.8000    0.0000    0.0000 H   0  0  0  0  0  0  0  0  0  0  0  0
   -0.8000   -1.3857    0.0000 C   0  0  0  0  0  0  0  0  0  0  0  0
    0.0000   -2.7713    0.0000 H   0  0  0  0  0  0  0  0  0  0  0  0
   -2.4000   -1.3857    0.0000 C   0  0  0  0  0  0  0  0  0  0  0  0
   -3.2000   -2.7713    0.0000 O   0  0  0  0  0  0  0  0  0  0  0  0
   -2.4000   -4.1569    0.0000 C   0  0  0  0  0  0  0  0  0  0  0  0
   -3.2000   -5.5426    0.0000 H   0  0  0  0  0  0  0  0  0  0  0  0
   -1.6000   -5.5426    0.0000 H   0  0  0  0  0  0  0  0  0  0  0  0
   -4.0000   -4.1569    0.0000 H   0  0  0  0  0  0  0  0  0  0  0  0
   -3.2000    0.0000    0.0000 C   0  0  0  0  0  0  0  0  0  0  0  0
   -4.8000    0.0000    0.0000 O   0  0  0  0  0  0  0  0  0  0  0  0
   -5.6000    1.3857    0.0000 C   0  0  0  0  0  0  0  0  0  0  0  0
   -4.8000    2.7713    0.0000 O   0  0  0  0  0  0  0  0  0  0  0  0
   -7.2000    1.3857    0.0000 C   0  0  0  0  0  0  0  0  0  0  0  0
   -8.8000    1.3857    0.0000 H   0  0  0  0  0  0  0  0  0  0  0  0
   -8.0000    2.7713    0.0000 H   0  0  0  0  0  0  0  0  0  0  0  0
   -8.0000    0.0000    0.0000 H   0  0  0  0  0  0  0  0  0  0  0  0
   -2.4000    1.3857    0.0000 C   0  0  0  0  0  0  0  0  0  0  0  0
   -3.2000    2.7713    0.0000 H   0  0  0  0  0  0  0  0  0  0  0  0
  1  2  1  0  0  0  0
  1  3  1  0  0  0  0
  3  4  1  0  0  0  0
  4  5  1  0  0  0  0
  4  6  1  0  0  0  0
  4  7  1  0  0  0  0
  7  8  1  0  0  0  0
  7  9  2  0  0  0  0
  9 10  1  0  0  0  0
  9 11  1  0  0  0  0
  3 12  2  0  0  0  0
 12 13  1  0  0  0  0
 12 14  1  0  0  0  0
 14 15  1  0  0  0  0
 15 16  1  0  0  0  0
 16 17  1  0  0  0  0
 16 18  1  0  0  0  0
 16 19  1  0  0  0  0
 14 20  2  0  0  0  0
 20 21  1  0  0  0  0
 21 22  1  0  0  0  0
 22 23  2  0  0  0  0
 22 24  1  0  0  0  0
 24 25  1  0  0  0  0
 24 26  1  0  0  0  0
 24 27  1  0  0  0  0
 20 28  1  0  0  0  0
 28  1  2  0  0  0  0
 28 29  1  0  0  0  0
M  END
> <ChemID>
100363

> <source_casrn>
93-28-7

> <CAS>
93-28-7

> <SMILES>
CC(=O)Oc1ccc(CC=C)cc1OC

> <NAME>
EUGENYL ACETATE

> <preferred_name>
Acetyleugenol

> <iupac>
4-allyl-2-methoxyphenyl acetate

> <MPID>
25002

> <dsstox_substance_id>
DTXSID5052624

> <Canonical_QSARr>
CC(=O)Oc1ccc(CC=C)cc1OC

> <InChI_Code_QSARr>
InChI=1S/C12H14O3/c1-4-5-10-6-7-11(15-9(2)13)12(8-10)14-3/h4,6-8H,1,5H2,2-3H3

> <InChI Key_QSARr>
SCCDQYPEOIRVGX-UHFFFAOYSA-N

> <Salt_Solvent>
?

> <LogVP>
-2.4961

$$$$
100367
  -INDIGO-08031723152D

 18 18  0  0  0  0  0  0  0  0999 V2000
   -1.3857    0.8000    0.0000 C   0  0  0  0  0  0  0  0  0  0  0  0
   -1.3857    2.4000    0.0000 O   0  0  0  0  0  0  0  0  0  0  0  0
   -2.7713   -0.0000    0.0000 O   0  0  0  0  0  0  0  0  0  0  0  0
   -4.1569    0.8000    0.0000 C   0  0  0  0  0  0  0  0  0  0  0  0
   -5.5426    1.6000    0.0000 H   0  0  0  0  0  0  0  0  0  0  0  0
   -5.5426   -0.0000    0.0000 H   0  0  0  0  0  0  0  0  0  0  0  0
   -4.1569    2.4000    0.0000 H   0  0  0  0  0  0  0  0  0  0  0  0
    0.0001   -0.0000    0.0000 C   0  0  0  0  0  0  0  0  0  0  0  0
    0.0001   -1.6000    0.0000 C   0  0  0  0  0  0  0  0  0  0  0  0
   -1.3857   -2.4000    0.0000 H   0  0  0  0  0  0  0  0  0  0  0  0
    1.3857   -2.4000    0.0000 C   0  0  0  0  0  0  0  0  0  0  0  0
    1.3857   -4.0000    0.0000 H   0  0  0  0  0  0  0  0  0  0  0  0
    2.7713   -1.6000    0.0000 C   0  0  0  0  0  0  0  0  0  0  0  0
    4.1569   -2.4000    0.0000 H   0  0  0  0  0  0  0  0  0  0  0  0
    2.7713   -0.0000    0.0000 C   0  0  0  0  0  0  0  0  0  0  0  0
    4.1569    0.8000    0.0000 H   0  0  0  0  0  0  0  0  0  0  0  0
    1.3857    0.8000    0.0000 C   0  0  0  0  0  0  0  0  0  0  0  0
    1.3857    2.4000    0.0000 H   0  0  0  0  0  0  0  0  0  0  0  0
  1  2  2  0  0  0  0
  1  3  1  0  0  0  0
  3  4  1  0  0  0  0
  4  5  1  0  0  0  0
  4  6  1  0  0  0  0
  4  7  1  0  0  0  0
  1  8  1  0  0  0  0
  8  9  1  0  0  0  0
  9 10  1  0  0  0  0
  9 11  2  0  0  0  0
 11 12  1  0  0  0  0
 11 13  1  0  0  0  0
 13 14  1  0  0  0  0
 13 15  2  0  0  0  0
 15 16  1  0  0  0  0
 15 17  1  0  0  0  0
 17  8  2  0  0  0  0
 17 18  1  0  0  0  0
M  END
> <ChemID>
100367

> <source_casrn>
93-58-3

> <CAS>
93-58-3

> <SMILES>
COC(=O)c1ccccc1

> <NAME>
BENZOIC ACID, METHYL ESTER

> <preferred_name>
Methyl benzoate

> <iupac>
methyl benzoate

> <MPID>
25006

> <dsstox_substance_id>
DTXSID5025572

> <Canonical_QSARr>
COC(=O)c1ccccc1

> <InChI_Code_QSARr>
InChI=1S/C8H8O2/c1-10-8(9)7-5-3-2-4-6-7/h2-6H,1H3

> <InChI Key_QSARr>
QPJVMBTYPHYUOC-UHFFFAOYSA-N

> <Salt_Solvent>
?

> <LogVP>
-0.4202

$$$$
100371
  -INDIGO-08031723152D

 21 21  0  0  0  0  0  0  0  0999 V2000
   -1.3856    0.8000    0.0000 C   0  0  0  0  0  0  0  0  0  0  0  0
   -1.3856    2.4000    0.0000 O   0  0  0  0  0  0  0  0  0  0  0  0
   -0.0001   -0.0000    0.0000 C   0  0  0  0  0  0  0  0  0  0  0  0
   -0.0001   -1.6000    0.0000 C   0  0  0  0  0  0  0  0  0  0  0  0
   -1.3857   -2.4000    0.0000 H   0  0  0  0  0  0  0  0  0  0  0  0
    1.3856   -2.4000    0.0000 C   0  0  0  0  0  0  0  0  0  0  0  0
    1.3856   -4.0000    0.0000 H   0  0  0  0  0  0  0  0  0  0  0  0
    2.7713   -1.6000    0.0000 C   0  0  0  0  0  0  0  0  0  0  0  0
    4.1569   -2.4000    0.0000 H   0  0  0  0  0  0  0  0  0  0  0  0
    2.7713   -0.0000    0.0000 C   0  0  0  0  0  0  0  0  0  0  0  0
    4.1569    0.8000    0.0000 H   0  0  0  0  0  0  0  0  0  0  0  0
    1.3856    0.8000    0.0000 C   0  0  0  0  0  0  0  0  0  0  0  0
    1.3856    2.4000    0.0000 H   0  0  0  0  0  0  0  0  0  0  0  0
   -2.7712   -0.0000    0.0000 O   0  0  0  0  0  0  0  0  0  0  0  0
   -4.1569    0.8000    0.0000 C   0  0  0  0  0  0  0  0  0  0  0  0
   -4.7692    2.2782    0.0000 H   0  0  0  0  0  0  0  0  0  0  0  0
   -3.5446    2.2782    0.0000 H   0  0  0  0  0  0  0  0  0  0  0  0
   -5.5425   -0.0000    0.0000 C   0  0  0  0  0  0  0  0  0  0  0  0
   -6.9282   -0.8000    0.0000 H   0  0  0  0  0  0  0  0  0  0  0  0
   -6.9282    0.8000    0.0000 H   0  0  0  0  0  0  0  0  0  0  0  0
   -5.5425   -1.6000    0.0000 H   0  0  0  0  0  0  0  0  0  0  0  0
  1  2  2  0  0  0  0
  1  3  1  0  0  0  0
  3  4  1  0  0  0  0
  4  5  1  0  0  0  0
  4  6  2  0  0  0  0
  6  7  1  0  0  0  0
  6  8  1  0  0  0  0
  8  9  1  0  0  0  0
  8 10  2  0  0  0  0
 10 11  1  0  0  0  0
 10 12  1  0  0  0  0
 12  3  2  0  0  0  0
 12 13  1  0  0  0  0
  1 14  1  0  0  0  0
 14 15  1  0  0  0  0
 15 16  1  0  0  0  0
 15 17  1  0  0  0  0
 15 18  1  0  0  0  0
 18 19  1  0  0  0  0
 18 20  1  0  0  0  0
 18 21  1  0  0  0  0
M  END
> <ChemID>
100371

> <source_casrn>
93-89-0

> <CAS>
93-89-0

> <SMILES>
CCOC(=O)c1ccccc1

> <NAME>
ETHYL BENZOATE

> <preferred_name>
Ethyl benzoate

> <iupac>
ethyl benzoate

> <MPID>
25010

> <dsstox_substance_id>
DTXSID3038696

> <Canonical_QSARr>
CCOC(=O)c1ccccc1

> <InChI_Code_QSARr>
InChI=1S/C9H10O2/c1-2-11-9(10)8-6-4-3-5-7-8/h3-7H,2H2,1H3

> <InChI Key_QSARr>
MTZQAGJQAFMTAQ-UHFFFAOYSA-N

> <Salt_Solvent>
?

> <LogVP>
-0.5735

$$$$
100375
  -INDIGO-08031723152D

 28 28  0  0  0  0  0  0  0  0999 V2000
    2.7713    0.0000    0.0000 C   0  0  0  0  0  0  0  0  0  0  0  0
    2.7713    1.6000    0.0000 O   0  0  0  0  0  0  0  0  0  0  0  0
    1.3857   -0.8000    0.0000 O   0  0  0  0  0  0  0  0  0  0  0  0
    0.0000    0.0000    0.0000 C   0  0  0  0  0  0  0  0  0  0  0  0
    0.8001    1.3856    0.0000 H   0  0  0  0  0  0  0  0  0  0  0  0
   -1.3855    0.8000    0.0000 C   0  0  0  0  0  0  0  0  0  0  0  0
   -2.7713    1.6000    0.0000 H   0  0  0  0  0  0  0  0  0  0  0  0
   -2.7713    0.0000    0.0000 H   0  0  0  0  0  0  0  0  0  0  0  0
   -1.3855    2.4000    0.0000 H   0  0  0  0  0  0  0  0  0  0  0  0
   -0.8001   -1.3856    0.0000 C   0  0  0  0  0  0  0  0  0  0  0  0
   -1.5999   -2.7712    0.0000 H   0  0  0  0  0  0  0  0  0  0  0  0
    0.0000   -2.7712    0.0000 H   0  0  0  0  0  0  0  0  0  0  0  0
   -2.4000   -1.3856    0.0000 H   0  0  0  0  0  0  0  0  0  0  0  0
    4.1570   -0.8000    0.0000 C   0  0  0  0  0  0  0  0  0  0  0  0
    4.7691   -2.2782    0.0000 H   0  0  0  0  0  0  0  0  0  0  0  0
    3.5447   -2.2782    0.0000 H   0  0  0  0  0  0  0  0  0  0  0  0
    5.5426    0.0000    0.0000 O   0  0  0  0  0  0  0  0  0  0  0  0
    6.9283   -0.8000    0.0000 C   0  0  0  0  0  0  0  0  0  0  0  0
    6.9283   -2.4000    0.0000 C   0  0  0  0  0  0  0  0  0  0  0  0
    5.5426   -3.2000    0.0000 Cl  0  0  0  0  0  0  0  0  0  0  0  0
    8.3138   -3.2000    0.0000 C   0  0  0  0  0  0  0  0  0  0  0  0
    8.3138   -4.8000    0.0000 H   0  0  0  0  0  0  0  0  0  0  0  0
    9.6996   -2.4000    0.0000 C   0  0  0  0  0  0  0  0  0  0  0  0
   11.0851   -3.2000    0.0000 Cl  0  0  0  0  0  0  0  0  0  0  0  0
    9.6996   -0.8000    0.0000 C   0  0  0  0  0  0  0  0  0  0  0  0
   11.0851    0.0000    0.0000 H   0  0  0  0  0  0  0  0  0  0  0  0
    8.3138    0.0000    0.0000 C   0  0  0  0  0  0  0  0  0  0  0  0
    8.3138    1.6000    0.0000 H   0  0  0  0  0  0  0  0  0  0  0  0
  1  2  2  0  0  0  0
  1  3  1  0  0  0  0
  3  4  1  0  0  0  0
  4  5  1  0  0  0  0
  4  6  1  0  0  0  0
  6  7  1  0  0  0  0
  6  8  1  0  0  0  0
  6  9  1  0  0  0  0
  4 10  1  0  0  0  0
 10 11  1  0  0  0  0
 10 12  1  0  0  0  0
 10 13  1  0  0  0  0
  1 14  1  0  0  0  0
 14 15  1  0  0  0  0
 14 16  1  0  0  0  0
 14 17  1  0  0  0  0
 17 18  1  0  0  0  0
 18 19  1  0  0  0  0
 19 20  1  0  0  0  0
 19 21  2  0  0  0  0
 21 22  1  0  0  0  0
 21 23  1  0  0  0  0
 23 24  1  0  0  0  0
 23 25  2  0  0  0  0
 25 26  1  0  0  0  0
 25 27  1  0  0  0  0
 27 18  2  0  0  0  0
 27 28  1  0  0  0  0
M  END
> <ChemID>
100375

> <source_casrn>
94-11-1

> <CAS>
94-11-1

> <SMILES>
CC(C)OC(=O)COc1ccc(Cl)cc1Cl

> <NAME>
2,4-D, ISOPROPYL ESTER

> <preferred_name>
2,4-D isopropyl ester

> <iupac>
propan-2-yl (2,4-dichlorophenoxy)acetate

> <MPID>
25014

> <dsstox_substance_id>
DTXSID5020445

> <Canonical_QSARr>
CC(C)OC(=O)COc1ccc(Cl)cc1Cl

> <InChI_Code_QSARr>
InChI=1S/C11H12Cl2O3/c1-7(2)16-11(14)6-15-10-4-3-8(12)5-9(10)13/h3-5,7H,6H2,1-2H3

> <InChI Key_QSARr>
WHOKDONDRZNCBC-UHFFFAOYSA-N

> <Salt_Solvent>
?

> <LogVP>
-3.6345

$$$$
100379
  -INDIGO-08031723152D

 31 31  0  0  0  0  0  0  0  0999 V2000
    4.1570    0.8000    0.0000 C   0  0  0  0  0  0  0  0  0  0  0  0
    4.1570    2.4000    0.0000 O   0  0  0  0  0  0  0  0  0  0  0  0
    2.7712   -0.0000    0.0000 O   0  0  0  0  0  0  0  0  0  0  0  0
    1.3856    0.8000    0.0000 C   0  0  0  0  0  0  0  0  0  0  0  0
    0.7734    2.2782    0.0000 H   0  0  0  0  0  0  0  0  0  0  0  0
    1.9979    2.2782    0.0000 H   0  0  0  0  0  0  0  0  0  0  0  0
    0.0001   -0.0000    0.0000 C   0  0  0  0  0  0  0  0  0  0  0  0
    0.6123   -1.4782    0.0000 H   0  0  0  0  0  0  0  0  0  0  0  0
   -0.6122   -1.4782    0.0000 H   0  0  0  0  0  0  0  0  0  0  0  0
   -1.3855    0.8000    0.0000 C   0  0  0  0  0  0  0  0  0  0  0  0
   -1.9980    2.2782    0.0000 H   0  0  0  0  0  0  0  0  0  0  0  0
   -0.7733    2.2782    0.0000 H   0  0  0  0  0  0  0  0  0  0  0  0
   -2.7713   -0.0000    0.0000 C   0  0  0  0  0  0  0  0  0  0  0  0
   -4.1569   -0.8000    0.0000 H   0  0  0  0  0  0  0  0  0  0  0  0
   -4.1569    0.8000    0.0000 H   0  0  0  0  0  0  0  0  0  0  0  0
   -2.7713   -1.6000    0.0000 H   0  0  0  0  0  0  0  0  0  0  0  0
    5.5426   -0.0000    0.0000 C   0  0  0  0  0  0  0  0  0  0  0  0
    6.1549   -1.4782    0.0000 H   0  0  0  0  0  0  0  0  0  0  0  0
    4.9304   -1.4782    0.0000 H   0  0  0  0  0  0  0  0  0  0  0  0
    6.9282    0.8000    0.0000 O   0  0  0  0  0  0  0  0  0  0  0  0
    8.3138   -0.0000    0.0000 C   0  0  0  0  0  0  0  0  0  0  0  0
    8.3138   -1.6000    0.0000 C   0  0  0  0  0  0  0  0  0  0  0  0
    6.9282   -2.4000    0.0000 Cl  0  0  0  0  0  0  0  0  0  0  0  0
    9.6996   -2.4000    0.0000 C   0  0  0  0  0  0  0  0  0  0  0  0
    9.6996   -4.0000    0.0000 H   0  0  0  0  0  0  0  0  0  0  0  0
   11.0852   -1.6000    0.0000 C   0  0  0  0  0  0  0  0  0  0  0  0
   12.4708   -2.4000    0.0000 Cl  0  0  0  0  0  0  0  0  0  0  0  0
   11.0852   -0.0000    0.0000 C   0  0  0  0  0  0  0  0  0  0  0  0
   12.4708    0.8000    0.0000 H   0  0  0  0  0  0  0  0  0  0  0  0
    9.6996    0.8000    0.0000 C   0  0  0  0  0  0  0  0  0  0  0  0
    9.6996    2.4000    0.0000 H   0  0  0  0  0  0  0  0  0  0  0  0
  1  2  2  0  0  0  0
  1  3  1  0  0  0  0
  3  4  1  0  0  0  0
  4  5  1  0  0  0  0
  4  6  1  0  0  0  0
  4  7  1  0  0  0  0
  7  8  1  0  0  0  0
  7  9  1  0  0  0  0
  7 10  1  0  0  0  0
 10 11  1  0  0  0  0
 10 12  1  0  0  0  0
 10 13  1  0  0  0  0
 13 14  1  0  0  0  0
 13 15  1  0  0  0  0
 13 16  1  0  0  0  0
  1 17  1  0  0  0  0
 17 18  1  0  0  0  0
 17 19  1  0  0  0  0
 17 20  1  0  0  0  0
 20 21  1  0  0  0  0
 21 22  1  0  0  0  0
 22 23  1  0  0  0  0
 22 24  2  0  0  0  0
 24 25  1  0  0  0  0
 24 26  1  0  0  0  0
 26 27  1  0  0  0  0
 26 28  2  0  0  0  0
 28 29  1  0  0  0  0
 28 30  1  0  0  0  0
 30 21  2  0  0  0  0
 30 31  1  0  0  0  0
M  END
> <ChemID>
100379

> <source_casrn>
94-80-4

> <CAS>
94-80-4

> <SMILES>
CCCCOC(=O)COc1ccc(Cl)cc1Cl

> <NAME>
2,4-D, BUTYL ESTER

> <preferred_name>
2,4-D 1-butyl ester

> <iupac>
butyl (2,4-dichlorophenoxy)acetate

> <MPID>
25018

> <dsstox_substance_id>
DTXSID5020443

> <Canonical_QSARr>
CCCCOC(=O)COc1ccc(Cl)cc1Cl

> <InChI_Code_QSARr>
InChI=1S/C12H14Cl2O3/c1-2-3-6-16-12(15)8-17-11-5-4-9(13)7-10(11)14/h4-5,7H,2-3,6,8H2,1H3

> <InChI Key_QSARr>
UQMRAFJOBWOFNS-UHFFFAOYSA-N

> <Salt_Solvent>
?

> <LogVP>
-4.2104

$$$$
100383
  -INDIGO-08031723152D

 26 25  0  0  0  0  0  0  0  0999 V2000
   -1.3857   -2.4000    0.0000 S   0  0  0  0  0  0  0  0  0  0  0  0
   -1.3857   -0.8000    0.0000 C   0  0  0  0  0  0  0  0  0  0  0  0
   -0.0001    0.0001    0.0000 N   0  0  0  0  0  0  0  0  0  0  0  0
   -0.0001    1.6001    0.0000 C   0  0  0  0  0  0  0  0  0  0  0  0
    0.9740    2.8694    0.0000 H   0  0  0  0  0  0  0  0  0  0  0  0
    1.5863    1.8088    0.0000 H   0  0  0  0  0  0  0  0  0  0  0  0
   -1.3857    2.4000    0.0000 C   0  0  0  0  0  0  0  0  0  0  0  0
   -1.3857    4.0000    0.0000 H   0  0  0  0  0  0  0  0  0  0  0  0
   -2.7713    3.2001    0.0000 H   0  0  0  0  0  0  0  0  0  0  0  0
   -0.0001    3.2001    0.0000 H   0  0  0  0  0  0  0  0  0  0  0  0
    1.3857   -0.8000    0.0000 C   0  0  0  0  0  0  0  0  0  0  0  0
    2.3597    0.4693    0.0000 H   0  0  0  0  0  0  0  0  0  0  0  0
    2.9720   -0.5911    0.0000 H   0  0  0  0  0  0  0  0  0  0  0  0
    1.3857   -2.4000    0.0000 C   0  0  0  0  0  0  0  0  0  0  0  0
    1.3857   -4.0000    0.0000 H   0  0  0  0  0  0  0  0  0  0  0  0
    2.7713   -3.2001    0.0000 H   0  0  0  0  0  0  0  0  0  0  0  0
   -0.0001   -3.2001    0.0000 H   0  0  0  0  0  0  0  0  0  0  0  0
   -2.7713   -0.0001    0.0000 S   0  0  0  0  0  0  0  0  0  0  0  0
   -4.1569   -0.8000    0.0000 C   0  0  0  0  0  0  0  0  0  0  0  0
   -3.5447   -2.2782    0.0000 H   0  0  0  0  0  0  0  0  0  0  0  0
   -4.7692   -2.2782    0.0000 H   0  0  0  0  0  0  0  0  0  0  0  0
   -5.5426   -0.0001    0.0000 C   0  0  0  0  0  0  0  0  0  0  0  0
   -6.9282   -0.8000    0.0000 C   0  0  0  0  0  0  0  0  0  0  0  0
   -8.3138    0.0001    0.0000 H   0  0  0  0  0  0  0  0  0  0  0  0
   -6.9282   -2.4000    0.0000 H   0  0  0  0  0  0  0  0  0  0  0  0
   -5.5426    1.5999    0.0000 Cl  0  0  0  0  0  0  0  0  0  0  0  0
  1  2  2  0  0  0  0
  2  3  1  0  0  0  0
  3  4  1  0  0  0  0
  4  5  1  0  0  0  0
  4  6  1  0  0  0  0
  4  7  1  0  0  0  0
  7  8  1  0  0  0  0
  7  9  1  0  0  0  0
  7 10  1  0  0  0  0
  3 11  1  0  0  0  0
 11 12  1  0  0  0  0
 11 13  1  0  0  0  0
 11 14  1  0  0  0  0
 14 15  1  0  0  0  0
 14 16  1  0  0  0  0
 14 17  1  0  0  0  0
  2 18  1  0  0  0  0
 18 19  1  0  0  0  0
 19 20  1  0  0  0  0
 19 21  1  0  0  0  0
 19 22  1  0  0  0  0
 22 23  2  0  0  0  0
 23 24  1  0  0  0  0
 23 25  1  0  0  0  0
 22 26  1  0  0  0  0
M  END
> <ChemID>
100383

> <source_casrn>
95-06-7

> <CAS>
95-06-7

> <SMILES>
CCN(CC)C(=S)SCC(=C)Cl

> <NAME>
SULFALLATE

> <preferred_name>
Sulfallate

> <iupac>
2-chloroprop-2-en-1-yl diethylcarbamodithioate

> <MPID>
25022

> <dsstox_substance_id>
DTXSID7021289

> <Canonical_QSARr>
CCN(CC)C(=S)SCC(=C)Cl

> <InChI_Code_QSARr>
InChI=1S/C8H14ClNS2/c1-4-10(5-2)8(11)12-6-7(3)9/h3-6H2,1-2H3

> <InChI Key_QSARr>
XJCLWVXTCRQIDI-UHFFFAOYSA-N

> <Salt_Solvent>
?

> <LogVP>
-2.6576

$$$$
100387
  -INDIGO-08031723152D

 15 15  0  0  0  0  0  0  0  0999 V2000
    0.0000   -0.0000    0.0000 C   0  0  0  0  0  0  0  0  0  0  0  0
   -0.8001    1.3856    0.0000 C   0  0  0  0  0  0  0  0  0  0  0  0
    0.0000    2.7713    0.0000 Br  0  0  0  0  0  0  0  0  0  0  0  0
   -2.4001    1.3856    0.0000 C   0  0  0  0  0  0  0  0  0  0  0  0
   -3.2000    2.7713    0.0000 H   0  0  0  0  0  0  0  0  0  0  0  0
   -3.2000   -0.0000    0.0000 C   0  0  0  0  0  0  0  0  0  0  0  0
   -4.8000   -0.0000    0.0000 H   0  0  0  0  0  0  0  0  0  0  0  0
   -2.4001   -1.3856    0.0000 C   0  0  0  0  0  0  0  0  0  0  0  0
   -3.2000   -2.7713    0.0000 H   0  0  0  0  0  0  0  0  0  0  0  0
   -0.8001   -1.3856    0.0000 C   0  0  0  0  0  0  0  0  0  0  0  0
    0.0000   -2.7713    0.0000 H   0  0  0  0  0  0  0  0  0  0  0  0
    1.6000   -0.0000    0.0000 C   0  0  0  0  0  0  0  0  0  0  0  0
    3.2000   -0.0000    0.0000 H   0  0  0  0  0  0  0  0  0  0  0  0
    2.4001   -1.3856    0.0000 H   0  0  0  0  0  0  0  0  0  0  0  0
    2.4001    1.3856    0.0000 H   0  0  0  0  0  0  0  0  0  0  0  0
  1  2  1  0  0  0  0
  2  3  1  0  0  0  0
  2  4  2  0  0  0  0
  4  5  1  0  0  0  0
  4  6  1  0  0  0  0
  6  7  1  0  0  0  0
  6  8  2  0  0  0  0
  8  9  1  0  0  0  0
  8 10  1  0  0  0  0
 10  1  2  0  0  0  0
 10 11  1  0  0  0  0
  1 12  1  0  0  0  0
 12 13  1  0  0  0  0
 12 14  1  0  0  0  0
 12 15  1  0  0  0  0
M  END
> <ChemID>
100387

> <source_casrn>
95-46-5

> <CAS>
95-46-5

> <SMILES>
Cc1ccccc1Br

> <NAME>
O-BROMOTOLUENE

> <preferred_name>
2-Bromotoluene

> <iupac>
1-bromo-2-methylbenzene

> <MPID>
25026

> <dsstox_substance_id>
DTXSID2024660

> <Canonical_QSARr>
Cc1ccccc1Br

> <InChI_Code_QSARr>
InChI=1S/C7H7Br/c1-6-4-2-3-5-7(6)8/h2-5H,1H3

> <InChI Key_QSARr>
QSSXJPIWXQTSIX-UHFFFAOYSA-N

> <Salt_Solvent>
?

> <LogVP>
0.0186

$$$$
100391
  -INDIGO-08031723152D

 12 12  0  0  0  0  0  0  0  0999 V2000
    0.8000    1.3856    0.0000 Cl  0  0  0  0  0  0  0  0  0  0  0  0
   -0.0000   -0.0000    0.0000 C   0  0  0  0  0  0  0  0  0  0  0  0
    0.8000   -1.3857    0.0000 C   0  0  0  0  0  0  0  0  0  0  0  0
    2.4000   -1.3857    0.0000 Cl  0  0  0  0  0  0  0  0  0  0  0  0
   -0.0000   -2.7713    0.0000 C   0  0  0  0  0  0  0  0  0  0  0  0
    0.8000   -4.1569    0.0000 H   0  0  0  0  0  0  0  0  0  0  0  0
   -1.6000   -2.7713    0.0000 C   0  0  0  0  0  0  0  0  0  0  0  0
   -2.4000   -4.1569    0.0000 H   0  0  0  0  0  0  0  0  0  0  0  0
   -2.4000   -1.3856    0.0000 C   0  0  0  0  0  0  0  0  0  0  0  0
   -4.0000   -1.3856    0.0000 H   0  0  0  0  0  0  0  0  0  0  0  0
   -1.6000   -0.0000    0.0000 C   0  0  0  0  0  0  0  0  0  0  0  0
   -2.4000    1.3856    0.0000 H   0  0  0  0  0  0  0  0  0  0  0  0
  1  2  1  0  0  0  0
  2  3  1  0  0  0  0
  3  4  1  0  0  0  0
  3  5  2  0  0  0  0
  5  6  1  0  0  0  0
  5  7  1  0  0  0  0
  7  8  1  0  0  0  0
  7  9  2  0  0  0  0
  9 10  1  0  0  0  0
  9 11  1  0  0  0  0
 11  2  2  0  0  0  0
 11 12  1  0  0  0  0
M  END
> <ChemID>
100391

> <source_casrn>
95-50-1

> <CAS>
95-50-1

> <SMILES>
Clc1ccccc1Cl

> <NAME>
1,2-DICHLOROBENZENE

> <preferred_name>
1,2-Dichlorobenzene

> <iupac>
1,2-dichlorobenzene

> <MPID>
25030

> <dsstox_substance_id>
DTXSID6020430

> <Canonical_QSARr>
Clc1ccccc1Cl

> <InChI_Code_QSARr>
InChI=1S/C6H4Cl2/c7-5-3-1-2-4-6(5)8/h1-4H

> <InChI Key_QSARr>
RFFLAFLAYFXFSW-UHFFFAOYSA-N

> <Salt_Solvent>
?

> <LogVP>
0.1335

$$$$
100395
  -INDIGO-08031723152D

 16 16  0  0  0  0  0  0  0  0999 V2000
   -1.3856    0.8000    0.0000 N   0  0  0  0  0  0  0  0  0  0  0  0
   -1.3856    2.4000    0.0000 H   0  0  0  0  0  0  0  0  0  0  0  0
   -2.7713   -0.0000    0.0000 H   0  0  0  0  0  0  0  0  0  0  0  0
    0.0000   -0.0000    0.0000 C   0  0  0  0  0  0  0  0  0  0  0  0
    0.0000   -1.6000    0.0000 C   0  0  0  0  0  0  0  0  0  0  0  0
   -1.3856   -2.4000    0.0000 N   0  0  0  0  0  0  0  0  0  0  0  0
   -1.3856   -4.0000    0.0000 H   0  0  0  0  0  0  0  0  0  0  0  0
   -2.7713   -1.6000    0.0000 H   0  0  0  0  0  0  0  0  0  0  0  0
    1.3856   -2.4000    0.0000 C   0  0  0  0  0  0  0  0  0  0  0  0
    1.3856   -4.0000    0.0000 H   0  0  0  0  0  0  0  0  0  0  0  0
    2.7713   -1.6000    0.0000 C   0  0  0  0  0  0  0  0  0  0  0  0
    4.1569   -2.4000    0.0000 H   0  0  0  0  0  0  0  0  0  0  0  0
    2.7713   -0.0000    0.0000 C   0  0  0  0  0  0  0  0  0  0  0  0
    4.1569    0.8000    0.0000 H   0  0  0  0  0  0  0  0  0  0  0  0
    1.3856    0.8000    0.0000 C   0  0  0  0  0  0  0  0  0  0  0  0
    1.3856    2.4000    0.0000 H   0  0  0  0  0  0  0  0  0  0  0  0
  1  2  1  0  0  0  0
  1  3  1  0  0  0  0
  1  4  1  0  0  0  0
  4  5  1  0  0  0  0
  5  6  1  0  0  0  0
  6  7  1  0  0  0  0
  6  8  1  0  0  0  0
  5  9  2  0  0  0  0
  9 10  1  0  0  0  0
  9 11  1  0  0  0  0
 11 12  1  0  0  0  0
 11 13  2  0  0  0  0
 13 14  1  0  0  0  0
 13 15  1  0  0  0  0
 15  4  2  0  0  0  0
 15 16  1  0  0  0  0
M  END
> <ChemID>
100395

> <source_casrn>
95-54-5

> <CAS>
95-54-5

> <SMILES>
Nc1ccccc1N

> <NAME>
1,2-BENZENEDIAMINE

> <preferred_name>
1,2-Phenylenediamine

> <iupac>
benzene-1,2-diamine

> <MPID>
25034

> <dsstox_substance_id>
DTXSID3025881

> <Canonical_QSARr>
Nc1ccccc1N

> <InChI_Code_QSARr>
InChI=1S/C6H8N2/c7-5-3-1-2-4-6(5)8/h1-4H,7-8H2

> <InChI Key_QSARr>
GEYOCULIXLDCMW-UHFFFAOYSA-N

> <Salt_Solvent>
?

> <LogVP>
-2.6861

$$$$
100399
  -INDIGO-08031723152D

 19 19  0  0  0  0  0  0  0  0999 V2000
    1.3857    0.8000    0.0000 C   0  0  0  0  0  0  0  0  0  0  0  0
    1.3857    2.4000    0.0000 H   0  0  0  0  0  0  0  0  0  0  0  0
    0.0000   -0.0000    0.0000 C   0  0  0  0  0  0  0  0  0  0  0  0
   -1.3856    0.8000    0.0000 C   0  0  0  0  0  0  0  0  0  0  0  0
   -2.7713    1.6000    0.0000 H   0  0  0  0  0  0  0  0  0  0  0  0
   -1.3857    2.4000    0.0000 H   0  0  0  0  0  0  0  0  0  0  0  0
   -2.7713   -0.0000    0.0000 H   0  0  0  0  0  0  0  0  0  0  0  0
    0.0000   -1.6000    0.0000 C   0  0  0  0  0  0  0  0  0  0  0  0
   -1.3856   -2.4000    0.0000 C   0  0  0  0  0  0  0  0  0  0  0  0
   -2.7713   -3.2000    0.0000 H   0  0  0  0  0  0  0  0  0  0  0  0
   -1.3856   -4.0000    0.0000 H   0  0  0  0  0  0  0  0  0  0  0  0
   -2.7713   -1.6000    0.0000 H   0  0  0  0  0  0  0  0  0  0  0  0
    1.3857   -2.4000    0.0000 C   0  0  0  0  0  0  0  0  0  0  0  0
    1.3857   -4.0000    0.0000 H   0  0  0  0  0  0  0  0  0  0  0  0
    2.7713   -1.6000    0.0000 C   0  0  0  0  0  0  0  0  0  0  0  0
    4.1570   -2.4000    0.0000 H   0  0  0  0  0  0  0  0  0  0  0  0
    2.7713   -0.0000    0.0000 C   0  0  0  0  0  0  0  0  0  0  0  0
    4.1570    0.8000    0.0000 O   0  0  0  0  0  0  0  0  0  0  0  0
    5.5426   -0.0000    0.0000 H   0  0  0  0  0  0  0  0  0  0  0  0
  1  2  1  0  0  0  0
  1  3  1  0  0  0  0
  3  4  1  0  0  0  0
  4  5  1  0  0  0  0
  4  6  1  0  0  0  0
  4  7  1  0  0  0  0
  3  8  2  0  0  0  0
  8  9  1  0  0  0  0
  9 10  1  0  0  0  0
  9 11  1  0  0  0  0
  9 12  1  0  0  0  0
  8 13  1  0  0  0  0
 13 14  1  0  0  0  0
 13 15  2  0  0  0  0
 15 16  1  0  0  0  0
 15 17  1  0  0  0  0
 17  1  2  0  0  0  0
 17 18  1  0  0  0  0
 18 19  1  0  0  0  0
M  END
> <ChemID>
100399

> <source_casrn>
95-65-8

> <CAS>
95-65-8

> <SMILES>
Cc1cc(O)ccc1C

> <NAME>
3,4-DIMETHYLPHENOL

> <preferred_name>
3,4-Dimethylphenol

> <iupac>
3,4-dimethylphenol

> <MPID>
25038

> <dsstox_substance_id>
DTXSID4024062

> <Canonical_QSARr>
Cc1cc(O)ccc1C

> <InChI_Code_QSARr>
InChI=1S/C8H10O/c1-6-3-4-8(9)5-7(6)2/h3-5,9H,1-2H3

> <InChI Key_QSARr>
YCOXTKKNXUZSKD-UHFFFAOYSA-N

> <Salt_Solvent>
?

> <LogVP>
-1.4486

$$$$
100403
  -INDIGO-08031723152D

 14 14  0  0  0  0  0  0  0  0999 V2000
    1.6000   -0.0000    0.0000 N   0  0  0  0  0  0  0  0  0  0  0  0
    2.4000    1.3856    0.0000 H   0  0  0  0  0  0  0  0  0  0  0  0
    2.4000   -1.3856    0.0000 H   0  0  0  0  0  0  0  0  0  0  0  0
    0.0000   -0.0000    0.0000 C   0  0  0  0  0  0  0  0  0  0  0  0
   -0.8000    1.3856    0.0000 C   0  0  0  0  0  0  0  0  0  0  0  0
    0.0000    2.7713    0.0000 H   0  0  0  0  0  0  0  0  0  0  0  0
   -2.4000    1.3856    0.0000 C   0  0  0  0  0  0  0  0  0  0  0  0
   -3.2000    2.7713    0.0000 Cl  0  0  0  0  0  0  0  0  0  0  0  0
   -3.2000   -0.0000    0.0000 C   0  0  0  0  0  0  0  0  0  0  0  0
   -4.8000   -0.0000    0.0000 Cl  0  0  0  0  0  0  0  0  0  0  0  0
   -2.4000   -1.3856    0.0000 C   0  0  0  0  0  0  0  0  0  0  0  0
   -3.2000   -2.7713    0.0000 H   0  0  0  0  0  0  0  0  0  0  0  0
   -0.8000   -1.3856    0.0000 C   0  0  0  0  0  0  0  0  0  0  0  0
    0.0000   -2.7713    0.0000 H   0  0  0  0  0  0  0  0  0  0  0  0
  1  2  1  0  0  0  0
  1  3  1  0  0  0  0
  1  4  1  0  0  0  0
  4  5  1  0  0  0  0
  5  6  1  0  0  0  0
  5  7  2  0  0  0  0
  7  8  1  0  0  0  0
  7  9  1  0  0  0  0
  9 10  1  0  0  0  0
  9 11  2  0  0  0  0
 11 12  1  0  0  0  0
 11 13  1  0  0  0  0
 13  4  2  0  0  0  0
 13 14  1  0  0  0  0
M  END
> <ChemID>
100403

> <source_casrn>
95-76-1

> <CAS>
95-76-1

> <SMILES>
Nc1cc(Cl)c(Cl)cc1

> <NAME>
3,4-DICHLOROANILINE

> <preferred_name>
3,4-Dichloroaniline

> <iupac>
3,4-dichloroaniline

> <MPID>
25042

> <dsstox_substance_id>
DTXSID7021815

> <Canonical_QSARr>
Nc1cc(Cl)c(Cl)cc1

> <InChI_Code_QSARr>
InChI=1S/C6H5Cl2N/c7-5-2-1-4(9)3-6(5)8/h1-3H,9H2

> <InChI Key_QSARr>
SDYWXFYBZPNOFX-UHFFFAOYSA-N

> <Salt_Solvent>
?

> <LogVP>
-2.1993

$$$$
100407
  -INDIGO-08031723152D

 20 19  0  0  0  0  0  0  0  0999 V2000
    2.7713    0.0000    0.0000 C   0  0  0  0  0  0  0  0  0  0  0  0
    4.1569    0.8000    0.0000 C   0  0  0  0  0  0  0  0  0  0  0  0
    5.5426    0.0000    0.0000 O   0  0  0  0  0  0  0  0  0  0  0  0
    6.9283    0.8000    0.0000 C   0  0  0  0  0  0  0  0  0  0  0  0
    7.5404    2.2782    0.0000 H   0  0  0  0  0  0  0  0  0  0  0  0
    6.3159    2.2782    0.0000 H   0  0  0  0  0  0  0  0  0  0  0  0
    8.3138    0.0000    0.0000 C   0  0  0  0  0  0  0  0  0  0  0  0
    9.6995   -0.8000    0.0000 H   0  0  0  0  0  0  0  0  0  0  0  0
    9.6995    0.8000    0.0000 H   0  0  0  0  0  0  0  0  0  0  0  0
    8.3138   -1.6000    0.0000 H   0  0  0  0  0  0  0  0  0  0  0  0
    4.1569    2.4000    0.0000 O   0  0  0  0  0  0  0  0  0  0  0  0
    1.3856    0.8000    0.0000 O   0  0  0  0  0  0  0  0  0  0  0  0
   -0.0001    0.0000    0.0000 C   0  0  0  0  0  0  0  0  0  0  0  0
   -0.6122   -1.4782    0.0000 H   0  0  0  0  0  0  0  0  0  0  0  0
    0.6123   -1.4782    0.0000 H   0  0  0  0  0  0  0  0  0  0  0  0
   -1.3856    0.8000    0.0000 C   0  0  0  0  0  0  0  0  0  0  0  0
   -2.7713    1.6000    0.0000 H   0  0  0  0  0  0  0  0  0  0  0  0
   -2.7713    0.0000    0.0000 H   0  0  0  0  0  0  0  0  0  0  0  0
   -1.3856    2.4000    0.0000 H   0  0  0  0  0  0  0  0  0  0  0  0
    2.7713   -1.6000    0.0000 O   0  0  0  0  0  0  0  0  0  0  0  0
  1  2  1  0  0  0  0
  2  3  1  0  0  0  0
  3  4  1  0  0  0  0
  4  5  1  0  0  0  0
  4  6  1  0  0  0  0
  4  7  1  0  0  0  0
  7  8  1  0  0  0  0
  7  9  1  0  0  0  0
  7 10  1  0  0  0  0
  2 11  2  0  0  0  0
  1 12  1  0  0  0  0
 12 13  1  0  0  0  0
 13 14  1  0  0  0  0
 13 15  1  0  0  0  0
 13 16  1  0  0  0  0
 16 17  1  0  0  0  0
 16 18  1  0  0  0  0
 16 19  1  0  0  0  0
  1 20  2  0  0  0  0
M  END
> <ChemID>
100407

> <source_casrn>
95-92-1

> <CAS>
95-92-1

> <SMILES>
CCOC(=O)C(=O)OCC

> <NAME>
ETHYL OXALATE

> <preferred_name>
Diethyl oxalate

> <iupac>
diethyl ethanedioate

> <MPID>
25046

> <dsstox_substance_id>
DTXSID2044472

> <Canonical_QSARr>
CCOC(=O)C(=O)OCC

> <InChI_Code_QSARr>
InChI=1S/C6H10O4/c1-3-9-5(7)6(8)10-4-2/h3-4H2,1-2H3

> <InChI Key_QSARr>
WYACBZDAHNBPPB-UHFFFAOYSA-N

> <Salt_Solvent>
?

> <LogVP>
-0.383

$$$$
100411
  -INDIGO-08031723152D

 19 18  0  0  0  0  0  0  0  0999 V2000
    0.0000   -1.6000    0.0000 C   0  0  0  0  0  0  0  0  0  0  0  0
    1.3857   -2.4000    0.0000 H   0  0  0  0  0  0  0  0  0  0  0  0
   -1.3856   -2.4000    0.0000 H   0  0  0  0  0  0  0  0  0  0  0  0
    0.0000    0.0000    0.0000 C   0  0  0  0  0  0  0  0  0  0  0  0
   -1.3856    0.8000    0.0000 C   0  0  0  0  0  0  0  0  0  0  0  0
   -2.7713    1.6000    0.0000 H   0  0  0  0  0  0  0  0  0  0  0  0
   -2.7713    0.0000    0.0000 H   0  0  0  0  0  0  0  0  0  0  0  0
   -1.3856    2.4000    0.0000 H   0  0  0  0  0  0  0  0  0  0  0  0
    1.3857    0.8000    0.0000 C   0  0  0  0  0  0  0  0  0  0  0  0
    1.3857    2.4000    0.0000 O   0  0  0  0  0  0  0  0  0  0  0  0
    2.7714   -0.0000    0.0000 O   0  0  0  0  0  0  0  0  0  0  0  0
    4.1569    0.8000    0.0000 C   0  0  0  0  0  0  0  0  0  0  0  0
    4.7692    2.2782    0.0000 H   0  0  0  0  0  0  0  0  0  0  0  0
    3.5447    2.2782    0.0000 H   0  0  0  0  0  0  0  0  0  0  0  0
    5.5425   -0.0000    0.0000 C   0  0  0  0  0  0  0  0  0  0  0  0
    5.5425   -1.6000    0.0000 H   0  0  0  0  0  0  0  0  0  0  0  0
    6.9282    0.8000    0.0000 C   0  0  0  0  0  0  0  0  0  0  0  0
    8.3138   -0.0000    0.0000 H   0  0  0  0  0  0  0  0  0  0  0  0
    6.9282    2.4000    0.0000 H   0  0  0  0  0  0  0  0  0  0  0  0
  1  2  1  0  0  0  0
  1  3  1  0  0  0  0
  1  4  2  0  0  0  0
  4  5  1  0  0  0  0
  5  6  1  0  0  0  0
  5  7  1  0  0  0  0
  5  8  1  0  0  0  0
  4  9  1  0  0  0  0
  9 10  2  0  0  0  0
  9 11  1  0  0  0  0
 11 12  1  0  0  0  0
 12 13  1  0  0  0  0
 12 14  1  0  0  0  0
 12 15  1  0  0  0  0
 15 16  1  0  0  0  0
 15 17  2  0  0  0  0
 17 18  1  0  0  0  0
 17 19  1  0  0  0  0
M  END
> <ChemID>
100411

> <source_casrn>
96-05-9

> <CAS>
96-05-9

> <SMILES>
CC(=C)C(=O)OCC=C

> <NAME>
ALLYL METHACRYLATE

> <preferred_name>
Allyl methacrylate

> <iupac>
prop-2-en-1-yl 2-methylprop-2-enoate

> <MPID>
25050

> <dsstox_substance_id>
DTXSID2021816

> <Canonical_QSARr>
CC(=C)C(=O)OCC=C

> <InChI_Code_QSARr>
InChI=1S/C7H10O2/c1-4-5-9-7(8)6(2)3/h4H,1-2,5H2,3H3

> <InChI Key_QSARr>
FBCQUCJYYPMKRO-UHFFFAOYSA-N

> <Salt_Solvent>
?

> <LogVP>
0.7612

$$$$
100415
  -INDIGO-08031723152D

 20 19  0  0  0  0  0  0  0  0999 V2000
    0.0001   -0.0000    0.0000 C   0  0  0  0  0  0  0  0  0  0  0  0
    0.0001   -1.6000    0.0000 H   0  0  0  0  0  0  0  0  0  0  0  0
   -1.5757   -0.2779    0.0000 C   0  0  0  0  0  0  0  0  0  0  0  0
   -2.9950    0.4610    0.0000 H   0  0  0  0  0  0  0  0  0  0  0  0
   -2.0569    1.2481    0.0000 H   0  0  0  0  0  0  0  0  0  0  0  0
   -2.1229   -1.7814    0.0000 C   0  0  0  0  0  0  0  0  0  0  0  0
   -2.6701   -3.2849    0.0000 H   0  0  0  0  0  0  0  0  0  0  0  0
   -3.6986   -2.0592    0.0000 H   0  0  0  0  0  0  0  0  0  0  0  0
   -1.0945   -3.0070    0.0000 H   0  0  0  0  0  0  0  0  0  0  0  0
    1.5757   -0.2779    0.0000 C   0  0  0  0  0  0  0  0  0  0  0  0
    2.0569    1.2481    0.0000 H   0  0  0  0  0  0  0  0  0  0  0  0
    2.9950    0.4610    0.0000 H   0  0  0  0  0  0  0  0  0  0  0  0
    2.1229   -1.7814    0.0000 C   0  0  0  0  0  0  0  0  0  0  0  0
    2.6701   -3.2849    0.0000 H   0  0  0  0  0  0  0  0  0  0  0  0
    3.6986   -2.0592    0.0000 H   0  0  0  0  0  0  0  0  0  0  0  0
    1.0945   -3.0070    0.0000 H   0  0  0  0  0  0  0  0  0  0  0  0
    0.0001    1.6000    0.0000 C   0  0  0  0  0  0  0  0  0  0  0  0
   -0.0001    3.2000    0.0000 H   0  0  0  0  0  0  0  0  0  0  0  0
    1.3856    2.4000    0.0000 H   0  0  0  0  0  0  0  0  0  0  0  0
   -1.3856    2.4000    0.0000 H   0  0  0  0  0  0  0  0  0  0  0  0
  1  2  1  0  0  0  0
  1  3  1  0  0  0  0
  3  4  1  0  0  0  0
  3  5  1  0  0  0  0
  3  6  1  0  0  0  0
  6  7  1  0  0  0  0
  6  8  1  0  0  0  0
  6  9  1  0  0  0  0
  1 10  1  0  0  0  0
 10 11  1  0  0  0  0
 10 12  1  0  0  0  0
 10 13  1  0  0  0  0
 13 14  1  0  0  0  0
 13 15  1  0  0  0  0
 13 16  1  0  0  0  0
  1 17  1  0  0  0  0
 17 18  1  0  0  0  0
 17 19  1  0  0  0  0
 17 20  1  0  0  0  0
M  END
> <ChemID>
100415

> <source_casrn>
96-14-0

> <CAS>
96-14-0

> <SMILES>
CC(CC)CC

> <NAME>
3-METHYLPENTANE

> <preferred_name>
3-Methylpentane

> <iupac>
3-methylpentane

> <MPID>
25054

> <dsstox_substance_id>
DTXSID8052647

> <Canonical_QSARr>
CC(CC)CC

> <InChI_Code_QSARr>
InChI=1S/C6H14/c1-4-6(3)5-2/h6H,4-5H2,1-3H3

> <InChI Key_QSARr>
PFEOZHBOMNWTJB-UHFFFAOYSA-N

> <Salt_Solvent>
?

> <LogVP>
2.2788

$$$$
100419
  -INDIGO-08031723152D

 12 11  0  0  0  0  0  0  0  0999 V2000
    0.0000    1.6000    0.0000 O   0  0  0  0  0  0  0  0  0  0  0  0
    1.3856    2.4000    0.0000 H   0  0  0  0  0  0  0  0  0  0  0  0
    0.0000    0.0000    0.0000 C   0  0  0  0  0  0  0  0  0  0  0  0
    0.0000   -1.6000    0.0000 H   0  0  0  0  0  0  0  0  0  0  0  0
   -1.6000    0.0000    0.0000 C   0  0  0  0  0  0  0  0  0  0  0  0
   -3.2000    0.0000    0.0000 H   0  0  0  0  0  0  0  0  0  0  0  0
   -2.4000   -1.3856    0.0000 H   0  0  0  0  0  0  0  0  0  0  0  0
   -2.4000    1.3856    0.0000 Cl  0  0  0  0  0  0  0  0  0  0  0  0
    1.6000    0.0000    0.0000 C   0  0  0  0  0  0  0  0  0  0  0  0
    3.2000    0.0000    0.0000 H   0  0  0  0  0  0  0  0  0  0  0  0
    2.4000   -1.3856    0.0000 H   0  0  0  0  0  0  0  0  0  0  0  0
    2.4000    1.3856    0.0000 Cl  0  0  0  0  0  0  0  0  0  0  0  0
  1  2  1  0  0  0  0
  1  3  1  0  0  0  0
  3  4  1  0  0  0  0
  3  5  1  0  0  0  0
  5  6  1  0  0  0  0
  5  7  1  0  0  0  0
  5  8  1  0  0  0  0
  3  9  1  0  0  0  0
  9 10  1  0  0  0  0
  9 11  1  0  0  0  0
  9 12  1  0  0  0  0
M  END
> <ChemID>
100419

> <source_casrn>
96-23-1

> <CAS>
96-23-1

> <SMILES>
OC(CCl)CCl

> <NAME>
1,3-DICHLORO-2-PROPANOL

> <preferred_name>
1,3-Dichloro-2-propanol

> <iupac>
1,3-dichloropropan-2-ol

> <MPID>
25058

> <dsstox_substance_id>
DTXSID6025010

> <Canonical_QSARr>
OC(CCl)CCl

> <InChI_Code_QSARr>
InChI=1S/C3H6Cl2O/c4-1-3(6)2-5/h3,6H,1-2H2

> <InChI Key_QSARr>
DEWLEGDTCGBNGU-UHFFFAOYSA-N

> <Salt_Solvent>
?

> <LogVP>
-0.1249

$$$$
100423
  -INDIGO-08031723152D

 18 18  0  0  0  0  0  0  0  0999 V2000
    0.0000    0.0000    0.0000 C   0  0  0  0  0  0  0  0  0  0  0  0
    0.6508    1.4617    0.0000 H   0  0  0  0  0  0  0  0  0  0  0  0
   -0.3327   -1.5651    0.0000 C   0  0  0  0  0  0  0  0  0  0  0  0
    1.2586   -1.7322    0.0000 H   0  0  0  0  0  0  0  0  0  0  0  0
   -0.3327   -3.1650    0.0000 H   0  0  0  0  0  0  0  0  0  0  0  0
   -1.9239   -1.7322    0.0000 C   0  0  0  0  0  0  0  0  0  0  0  0
   -1.5912   -3.2973    0.0000 H   0  0  0  0  0  0  0  0  0  0  0  0
   -3.4456   -2.2267    0.0000 H   0  0  0  0  0  0  0  0  0  0  0  0
   -2.5746   -0.2706    0.0000 C   0  0  0  0  0  0  0  0  0  0  0  0
   -3.9603   -1.0706    0.0000 H   0  0  0  0  0  0  0  0  0  0  0  0
   -3.5151    1.0238    0.0000 H   0  0  0  0  0  0  0  0  0  0  0  0
   -1.3857    0.8000    0.0000 C   0  0  0  0  0  0  0  0  0  0  0  0
   -2.5746    1.8706    0.0000 H   0  0  0  0  0  0  0  0  0  0  0  0
   -0.4452    2.0944    0.0000 H   0  0  0  0  0  0  0  0  0  0  0  0
    1.5990    0.0559    0.0000 C   0  0  0  0  0  0  0  0  0  0  0  0
    3.1981    0.1117    0.0000 H   0  0  0  0  0  0  0  0  0  0  0  0
    2.4469   -1.3011    0.0000 H   0  0  0  0  0  0  0  0  0  0  0  0
    2.3502    1.4686    0.0000 H   0  0  0  0  0  0  0  0  0  0  0  0
  1  2  1  0  0  0  0
  1  3  1  0  0  0  0
  3  4  1  0  0  0  0
  3  5  1  0  0  0  0
  3  6  1  0  0  0  0
  6  7  1  0  0  0  0
  6  8  1  0  0  0  0
  6  9  1  0  0  0  0
  9 10  1  0  0  0  0
  9 11  1  0  0  0  0
  9 12  1  0  0  0  0
 12  1  1  0  0  0  0
 12 13  1  0  0  0  0
 12 14  1  0  0  0  0
  1 15  1  0  0  0  0
 15 16  1  0  0  0  0
 15 17  1  0  0  0  0
 15 18  1  0  0  0  0
M  END
> <ChemID>
100423

> <source_casrn>
96-37-7

> <CAS>
96-37-7

> <SMILES>
CC1CCCC1

> <NAME>
METHYLCYCLOPENTANE

> <preferred_name>
Methylcyclopentane

> <iupac>
methylcyclopentane

> <MPID>
25062

> <dsstox_substance_id>
DTXSID3025590

> <Canonical_QSARr>
CC1CCCC1

> <InChI_Code_QSARr>
InChI=1S/C6H12/c1-6-4-2-3-5-6/h6H,2-5H2,1H3

> <InChI Key_QSARr>
GDOPTJXRTPNYNR-UHFFFAOYSA-N

> <Salt_Solvent>
?

> <LogVP>
2.1383

$$$$
100427
  -INDIGO-08031723152D

 12 12  0  0  0  0  0  0  0  0999 V2000
   -3.3856    2.3830    0.0000 O   0  0  0  0  0  0  0  0  0  0  0  0
   -1.9239    1.7323    0.0000 C   0  0  0  0  0  0  0  0  0  0  0  0
   -1.5912    0.1672    0.0000 C   0  0  0  0  0  0  0  0  0  0  0  0
   -3.1825    0.0000    0.0000 H   0  0  0  0  0  0  0  0  0  0  0  0
   -1.5912   -1.4328    0.0000 H   0  0  0  0  0  0  0  0  0  0  0  0
    0.0000    0.0000    0.0000 C   0  0  0  0  0  0  0  0  0  0  0  0
   -0.3327   -1.5650    0.0000 H   0  0  0  0  0  0  0  0  0  0  0  0
    1.5217   -0.4944    0.0000 H   0  0  0  0  0  0  0  0  0  0  0  0
    0.6508    1.4617    0.0000 C   0  0  0  0  0  0  0  0  0  0  0  0
    2.0364    0.6617    0.0000 H   0  0  0  0  0  0  0  0  0  0  0  0
    1.5912    2.7561    0.0000 H   0  0  0  0  0  0  0  0  0  0  0  0
   -0.5383    2.5323    0.0000 O   0  0  0  0  0  0  0  0  0  0  0  0
  1  2  2  0  0  0  0
  2  3  1  0  0  0  0
  3  4  1  0  0  0  0
  3  5  1  0  0  0  0
  3  6  1  0  0  0  0
  6  7  1  0  0  0  0
  6  8  1  0  0  0  0
  6  9  1  0  0  0  0
  9 10  1  0  0  0  0
  9 11  1  0  0  0  0
  9 12  1  0  0  0  0
 12  2  1  0  0  0  0
M  END
> <ChemID>
100427

> <source_casrn>
96-48-0

> <CAS>
96-48-0

> <SMILES>
O=C1CCCO1

> <NAME>
GAMMA-BUTYROLACTONE

> <preferred_name>
4-Butyrolactone

> <iupac>
dihydrofuran-2(3H)-one

> <MPID>
25066

> <dsstox_substance_id>
DTXSID6020224

> <Canonical_QSARr>
O=C1CCCO1

> <InChI_Code_QSARr>
InChI=1S/C4H6O2/c5-4-2-1-3-6-4/h1-3H2

> <InChI Key_QSARr>
YEJRWHAVMIAJKC-UHFFFAOYSA-N

> <Salt_Solvent>
?

> <LogVP>
-0.3468

$$$$
100431
  -INDIGO-08031723152D

 31 31  0  0  0  0  0  0  0  0999 V2000
   -1.3857    2.4000    0.0000 C   0  0  0  0  0  0  0  0  0  0  0  0
   -0.0000    3.2000    0.0000 O   0  0  0  0  0  0  0  0  0  0  0  0
   -0.0000    4.8000    0.0000 H   0  0  0  0  0  0  0  0  0  0  0  0
   -1.3857    0.8000    0.0000 C   0  0  0  0  0  0  0  0  0  0  0  0
   -0.0000   -0.0000    0.0000 C   0  0  0  0  0  0  0  0  0  0  0  0
    1.3857   -0.8000    0.0000 C   0  0  0  0  0  0  0  0  0  0  0  0
    2.7714   -1.6001    0.0000 H   0  0  0  0  0  0  0  0  0  0  0  0
    1.6635   -2.3757    0.0000 H   0  0  0  0  0  0  0  0  0  0  0  0
    2.8891   -0.2528    0.0000 H   0  0  0  0  0  0  0  0  0  0  0  0
    0.8000    1.3856    0.0000 C   0  0  0  0  0  0  0  0  0  0  0  0
    1.3472    2.8892    0.0000 H   0  0  0  0  0  0  0  0  0  0  0  0
    2.3756    1.6634    0.0000 H   0  0  0  0  0  0  0  0  0  0  0  0
    1.8284    0.1600    0.0000 H   0  0  0  0  0  0  0  0  0  0  0  0
   -0.8001   -1.3857    0.0000 C   0  0  0  0  0  0  0  0  0  0  0  0
   -1.8285   -2.6113    0.0000 H   0  0  0  0  0  0  0  0  0  0  0  0
   -0.2529   -2.8891    0.0000 H   0  0  0  0  0  0  0  0  0  0  0  0
    0.7757   -1.6635    0.0000 H   0  0  0  0  0  0  0  0  0  0  0  0
   -2.7712   -0.0000    0.0000 C   0  0  0  0  0  0  0  0  0  0  0  0
   -2.7712   -1.6001    0.0000 H   0  0  0  0  0  0  0  0  0  0  0  0
   -4.1569    0.8000    0.0000 C   0  0  0  0  0  0  0  0  0  0  0  0
   -5.5426   -0.0000    0.0000 C   0  0  0  0  0  0  0  0  0  0  0  0
   -6.1548   -1.4782    0.0000 H   0  0  0  0  0  0  0  0  0  0  0  0
   -4.9303   -1.4782    0.0000 H   0  0  0  0  0  0  0  0  0  0  0  0
   -6.9282    0.8000    0.0000 C   0  0  0  0  0  0  0  0  0  0  0  0
   -8.3138   -0.0000    0.0000 H   0  0  0  0  0  0  0  0  0  0  0  0
   -8.3138    1.6000    0.0000 H   0  0  0  0  0  0  0  0  0  0  0  0
   -6.9282   -0.8000    0.0000 H   0  0  0  0  0  0  0  0  0  0  0  0
   -4.1569    2.4000    0.0000 C   0  0  0  0  0  0  0  0  0  0  0  0
   -5.5426    3.2000    0.0000 H   0  0  0  0  0  0  0  0  0  0  0  0
   -2.7712    3.2000    0.0000 C   0  0  0  0  0  0  0  0  0  0  0  0
   -2.7712    4.8000    0.0000 H   0  0  0  0  0  0  0  0  0  0  0  0
  1  2  1  0  0  0  0
  2  3  1  0  0  0  0
  1  4  1  0  0  0  0
  4  5  1  0  0  0  0
  5  6  1  0  0  0  0
  6  7  1  0  0  0  0
  6  8  1  0  0  0  0
  6  9  1  0  0  0  0
  5 10  1  0  0  0  0
 10 11  1  0  0  0  0
 10 12  1  0  0  0  0
 10 13  1  0  0  0  0
  5 14  1  0  0  0  0
 14 15  1  0  0  0  0
 14 16  1  0  0  0  0
 14 17  1  0  0  0  0
  4 18  2  0  0  0  0
 18 19  1  0  0  0  0
 18 20  1  0  0  0  0
 20 21  1  0  0  0  0
 21 22  1  0  0  0  0
 21 23  1  0  0  0  0
 21 24  1  0  0  0  0
 24 25  1  0  0  0  0
 24 26  1  0  0  0  0
 24 27  1  0  0  0  0
 20 28  2  0  0  0  0
 28 29  1  0  0  0  0
 28 30  1  0  0  0  0
 30  1  2  0  0  0  0
 30 31  1  0  0  0  0
M  END
> <ChemID>
100431

> <source_casrn>
96-70-8

> <CAS>
96-70-8

> <SMILES>
CCc1cc(c(O)cc1)C(C)(C)C

> <NAME>
2-(T-BUTYL)-4-ETHYLPHENOL

> <preferred_name>
2-tert-Butyl-4-ethylphenol

> <iupac>
2-tert-butyl-4-ethylphenol

> <MPID>
25070

> <dsstox_substance_id>
DTXSID4044581

> <Canonical_QSARr>
CCc1cc(c(O)cc1)C(C)(C)C

> <InChI_Code_QSARr>
InChI=1S/C12H18O/c1-5-9-6-7-11(13)10(8-9)12(2,3)4/h6-8,13H,5H2,1-4H3

> <InChI Key_QSARr>
LZHCVNIARUXHAL-UHFFFAOYSA-N

> <Salt_Solvent>
?

> <LogVP>
-1.7447

$$$$
100436
  -INDIGO-08031723152D

 27 28  0  0  0  0  0  0  0  0999 V2000
    2.0570    2.4513    0.0000 O   0  0  0  0  0  0  0  0  0  0  0  0
    3.0855    3.6770    0.0000 H   0  0  0  0  0  0  0  0  0  0  0  0
    2.6041    0.9478    0.0000 C   0  0  0  0  0  0  0  0  0  0  0  0
    4.1799    0.6700    0.0000 C   0  0  0  0  0  0  0  0  0  0  0  0
    5.2083    1.8957    0.0000 H   0  0  0  0  0  0  0  0  0  0  0  0
    4.7270   -0.8335    0.0000 C   0  0  0  0  0  0  0  0  0  0  0  0
    6.3028   -1.1113    0.0000 H   0  0  0  0  0  0  0  0  0  0  0  0
    3.6986   -2.0592    0.0000 C   0  0  0  0  0  0  0  0  0  0  0  0
    4.2459   -3.5626    0.0000 Cl  0  0  0  0  0  0  0  0  0  0  0  0
    2.1230   -1.7813    0.0000 C   0  0  0  0  0  0  0  0  0  0  0  0
    1.0945   -3.0071    0.0000 H   0  0  0  0  0  0  0  0  0  0  0  0
    1.5757   -0.2779    0.0000 C   0  0  0  0  0  0  0  0  0  0  0  0
    0.0001   -0.0000    0.0000 C   0  0  0  0  0  0  0  0  0  0  0  0
    0.3462    1.5621    0.0000 H   0  0  0  0  0  0  0  0  0  0  0  0
   -0.8597    1.3495    0.0000 H   0  0  0  0  0  0  0  0  0  0  0  0
   -1.3857   -0.8000    0.0000 C   0  0  0  0  0  0  0  0  0  0  0  0
   -1.3857   -2.4000    0.0000 C   0  0  0  0  0  0  0  0  0  0  0  0
    0.0001   -3.2001    0.0000 H   0  0  0  0  0  0  0  0  0  0  0  0
   -2.7713   -3.2001    0.0000 C   0  0  0  0  0  0  0  0  0  0  0  0
   -2.7713   -4.8000    0.0000 Cl  0  0  0  0  0  0  0  0  0  0  0  0
   -4.1569   -2.4000    0.0000 C   0  0  0  0  0  0  0  0  0  0  0  0
   -5.5426   -3.2001    0.0000 H   0  0  0  0  0  0  0  0  0  0  0  0
   -4.1569   -0.8000    0.0000 C   0  0  0  0  0  0  0  0  0  0  0  0
   -5.5426   -0.0000    0.0000 H   0  0  0  0  0  0  0  0  0  0  0  0
   -2.7713   -0.0000    0.0000 C   0  0  0  0  0  0  0  0  0  0  0  0
   -2.7713    1.6000    0.0000 O   0  0  0  0  0  0  0  0  0  0  0  0
   -4.1569    2.4001    0.0000 H   0  0  0  0  0  0  0  0  0  0  0  0
  1  2  1  0  0  0  0
  1  3  1  0  0  0  0
  3  4  1  0  0  0  0
  4  5  1  0  0  0  0
  4  6  2  0  0  0  0
  6  7  1  0  0  0  0
  6  8  1  0  0  0  0
  8  9  1  0  0  0  0
  8 10  2  0  0  0  0
 10 11  1  0  0  0  0
 10 12  1  0  0  0  0
 12  3  2  0  0  0  0
 12 13  1  0  0  0  0
 13 14  1  0  0  0  0
 13 15  1  0  0  0  0
 13 16  1  0  0  0  0
 16 17  1  0  0  0  0
 17 18  1  0  0  0  0
 17 19  2  0  0  0  0
 19 20  1  0  0  0  0
 19 21  1  0  0  0  0
 21 22  1  0  0  0  0
 21 23  2  0  0  0  0
 23 24  1  0  0  0  0
 23 25  1  0  0  0  0
 25 16  2  0  0  0  0
 25 26  1  0  0  0  0
 26 27  1  0  0  0  0
M  END
> <ChemID>
100436

> <source_casrn>
97-23-4

> <CAS>
97-23-4

> <SMILES>
Oc1ccc(Cl)cc1Cc1cc(Cl)ccc1O

> <NAME>
PHENOL,2,2'-METHYLENEBIS 4-CHLORO-

> <preferred_name>
Dichlorophen

> <iupac>
2,2'-methanediylbis(4-chlorophenol)

> <MPID>
25074

> <dsstox_substance_id>
DTXSID6021824

> <Canonical_QSARr>
Oc1ccc(Cl)cc1Cc1cc(Cl)ccc1O

> <InChI_Code_QSARr>
InChI=1S/C13H10Cl2O2/c14-10-1-3-12(16)8(6-10)5-9-7-11(15)2-4-13(9)17/h1-4,6-7,16-17H,5H2

> <InChI Key_QSARr>
MDNWOSOZYLHTCG-UHFFFAOYSA-N

> <Salt_Solvent>
?

> <LogVP>
-10.011

$$$$
100441
  -INDIGO-08031723152D

 18 17  0  0  0  0  0  0  0  0999 V2000
   -2.7713   -1.6000    0.0000 O   0  0  0  0  0  0  0  0  0  0  0  0
   -2.7713    0.0000    0.0000 C   0  0  0  0  0  0  0  0  0  0  0  0
   -1.3856    0.8000    0.0000 O   0  0  0  0  0  0  0  0  0  0  0  0
    0.0000    0.0000    0.0000 C   0  0  0  0  0  0  0  0  0  0  0  0
    0.6123   -1.4782    0.0000 H   0  0  0  0  0  0  0  0  0  0  0  0
   -0.6123   -1.4782    0.0000 H   0  0  0  0  0  0  0  0  0  0  0  0
    1.3857    0.8000    0.0000 C   0  0  0  0  0  0  0  0  0  0  0  0
    2.7713    1.6000    0.0000 H   0  0  0  0  0  0  0  0  0  0  0  0
    2.7713    0.0000    0.0000 H   0  0  0  0  0  0  0  0  0  0  0  0
    1.3857    2.4000    0.0000 H   0  0  0  0  0  0  0  0  0  0  0  0
   -4.1570    0.8000    0.0000 C   0  0  0  0  0  0  0  0  0  0  0  0
   -4.1570    2.4000    0.0000 C   0  0  0  0  0  0  0  0  0  0  0  0
   -5.5426    3.2000    0.0000 H   0  0  0  0  0  0  0  0  0  0  0  0
   -2.7713    3.2000    0.0000 H   0  0  0  0  0  0  0  0  0  0  0  0
   -5.5426    0.0000    0.0000 C   0  0  0  0  0  0  0  0  0  0  0  0
   -6.9282   -0.8000    0.0000 H   0  0  0  0  0  0  0  0  0  0  0  0
   -6.9282    0.8000    0.0000 H   0  0  0  0  0  0  0  0  0  0  0  0
   -5.5426   -1.6000    0.0000 H   0  0  0  0  0  0  0  0  0  0  0  0
  1  2  2  0  0  0  0
  2  3  1  0  0  0  0
  3  4  1  0  0  0  0
  4  5  1  0  0  0  0
  4  6  1  0  0  0  0
  4  7  1  0  0  0  0
  7  8  1  0  0  0  0
  7  9  1  0  0  0  0
  7 10  1  0  0  0  0
  2 11  1  0  0  0  0
 11 12  2  0  0  0  0
 12 13  1  0  0  0  0
 12 14  1  0  0  0  0
 11 15  1  0  0  0  0
 15 16  1  0  0  0  0
 15 17  1  0  0  0  0
 15 18  1  0  0  0  0
M  END
> <ChemID>
100441

> <source_casrn>
97-63-2

> <CAS>
97-63-2

> <SMILES>
CC(=C)C(=O)OCC

> <NAME>
ETHYL METHACRYLATE

> <preferred_name>
Ethyl methacrylate

> <iupac>
ethyl 2-methylprop-2-enoate

> <MPID>
25078

> <dsstox_substance_id>
DTXSID1025308

> <Canonical_QSARr>
CC(=C)C(=O)OCC

> <InChI_Code_QSARr>
InChI=1S/C6H10O2/c1-4-8-6(7)5(2)3/h2,4H2,1,3H3

> <InChI Key_QSARr>
SUPCQIBBMFXVTL-UHFFFAOYSA-N

> <Salt_Solvent>
?

> <LogVP>
1.3137

$$$$
100445
  -INDIGO-08031723152D

 24 23  0  0  0  0  0  0  0  0999 V2000
   -4.1569    0.8000    0.0000 C   0  0  0  0  0  0  0  0  0  0  0  0
   -4.1569    2.4000    0.0000 O   0  0  0  0  0  0  0  0  0  0  0  0
   -2.7712    0.0000    0.0000 O   0  0  0  0  0  0  0  0  0  0  0  0
   -1.3857    0.8000    0.0000 C   0  0  0  0  0  0  0  0  0  0  0  0
   -1.9979    2.2782    0.0000 H   0  0  0  0  0  0  0  0  0  0  0  0
   -0.7733    2.2782    0.0000 H   0  0  0  0  0  0  0  0  0  0  0  0
    0.0000    0.0000    0.0000 C   0  0  0  0  0  0  0  0  0  0  0  0
    0.6124   -1.4782    0.0000 H   0  0  0  0  0  0  0  0  0  0  0  0
   -0.6124   -1.4782    0.0000 H   0  0  0  0  0  0  0  0  0  0  0  0
    1.3857    0.8000    0.0000 C   0  0  0  0  0  0  0  0  0  0  0  0
    0.7733    2.2782    0.0000 H   0  0  0  0  0  0  0  0  0  0  0  0
    1.9979    2.2782    0.0000 H   0  0  0  0  0  0  0  0  0  0  0  0
    2.7712    0.0000    0.0000 C   0  0  0  0  0  0  0  0  0  0  0  0
    4.1569   -0.8000    0.0000 H   0  0  0  0  0  0  0  0  0  0  0  0
    4.1569    0.8000    0.0000 H   0  0  0  0  0  0  0  0  0  0  0  0
    2.7712   -1.6000    0.0000 H   0  0  0  0  0  0  0  0  0  0  0  0
   -5.5426   -0.0000    0.0000 C   0  0  0  0  0  0  0  0  0  0  0  0
   -6.9281    0.8000    0.0000 C   0  0  0  0  0  0  0  0  0  0  0  0
   -8.3138    1.6000    0.0000 H   0  0  0  0  0  0  0  0  0  0  0  0
   -8.3138   -0.0000    0.0000 H   0  0  0  0  0  0  0  0  0  0  0  0
   -6.9281    2.4000    0.0000 H   0  0  0  0  0  0  0  0  0  0  0  0
   -5.5426   -1.6000    0.0000 C   0  0  0  0  0  0  0  0  0  0  0  0
   -6.9281   -2.4000    0.0000 H   0  0  0  0  0  0  0  0  0  0  0  0
   -4.1569   -2.4000    0.0000 H   0  0  0  0  0  0  0  0  0  0  0  0
  1  2  2  0  0  0  0
  1  3  1  0  0  0  0
  3  4  1  0  0  0  0
  4  5  1  0  0  0  0
  4  6  1  0  0  0  0
  4  7  1  0  0  0  0
  7  8  1  0  0  0  0
  7  9  1  0  0  0  0
  7 10  1  0  0  0  0
 10 11  1  0  0  0  0
 10 12  1  0  0  0  0
 10 13  1  0  0  0  0
 13 14  1  0  0  0  0
 13 15  1  0  0  0  0
 13 16  1  0  0  0  0
  1 17  1  0  0  0  0
 17 18  1  0  0  0  0
 18 19  1  0  0  0  0
 18 20  1  0  0  0  0
 18 21  1  0  0  0  0
 17 22  2  0  0  0  0
 22 23  1  0  0  0  0
 22 24  1  0  0  0  0
M  END
> <ChemID>
100445

> <source_casrn>
97-88-1

> <CAS>
97-88-1

> <SMILES>
CC(=C)C(=O)OCCCC

> <NAME>
METHACRYLIC ACID, N-BUTYL ESTER

> <preferred_name>
Butyl methacrylate

> <iupac>
butyl 2-methylprop-2-enoate

> <MPID>
25082

> <dsstox_substance_id>
DTXSID4024696

> <Canonical_QSARr>
CC(=C)C(=O)OCCCC

> <InChI_Code_QSARr>
InChI=1S/C8H14O2/c1-4-5-6-10-8(9)7(2)3/h2,4-6H2,1,3H3

> <InChI Key_QSARr>
SOGAXMICEFXMKE-UHFFFAOYSA-N

> <Salt_Solvent>
?

> <LogVP>
0.3263

$$$$
100450
  -INDIGO-08031723152D

 11 11  0  0  0  0  0  0  0  0999 V2000
    2.2421    1.6289    0.0000 O   0  0  0  0  0  0  0  0  0  0  0  0
    1.5912    0.1672    0.0000 C   0  0  0  0  0  0  0  0  0  0  0  0
    2.5317   -1.1271    0.0000 H   0  0  0  0  0  0  0  0  0  0  0  0
   -0.0000    0.0000    0.0000 C   0  0  0  0  0  0  0  0  0  0  0  0
   -1.0706    1.1891    0.0000 C   0  0  0  0  0  0  0  0  0  0  0  0
   -0.7379    2.7541    0.0000 H   0  0  0  0  0  0  0  0  0  0  0  0
   -2.5322    0.5383    0.0000 C   0  0  0  0  0  0  0  0  0  0  0  0
   -3.9179    1.3382    0.0000 H   0  0  0  0  0  0  0  0  0  0  0  0
   -2.3650   -1.0530    0.0000 C   0  0  0  0  0  0  0  0  0  0  0  0
   -3.5541   -2.1236    0.0000 H   0  0  0  0  0  0  0  0  0  0  0  0
   -0.8000   -1.3856    0.0000 O   0  0  0  0  0  0  0  0  0  0  0  0
  1  2  2  0  0  0  0
  2  3  1  0  0  0  0
  2  4  1  0  0  0  0
  4  5  2  0  0  0  0
  5  6  1  0  0  0  0
  5  7  1  0  0  0  0
  7  8  1  0  0  0  0
  7  9  2  0  0  0  0
  9 10  1  0  0  0  0
  9 11  1  0  0  0  0
 11  4  1  0  0  0  0
M  END
> <ChemID>
100450

> <source_casrn>
98-01-1

> <CAS>
98-01-1

> <SMILES>
O=Cc1ccco1

> <NAME>
FUFURAL

> <preferred_name>
Furfural

> <iupac>
furan-2-carbaldehyde

> <MPID>
25086

> <dsstox_substance_id>
DTXSID1020647

> <Canonical_QSARr>
O=Cc1ccco1

> <InChI_Code_QSARr>
InChI=1S/C5H4O2/c6-4-5-2-1-3-7-5/h1-4H

> <InChI Key_QSARr>
HYBBIBNJHNGZAN-UHFFFAOYSA-N

> <Salt_Solvent>
?

> <LogVP>
0.3444

$$$$
100454
  -INDIGO-08031723152D

 15 15  0  0  0  0  0  0  0  0999 V2000
   -1.6000   -1.6000    0.0000 Cl  0  0  0  0  0  0  0  0  0  0  0  0
   -1.6000   -0.0000    0.0000 S   0  0  0  0  0  0  0  0  0  0  0  0
    0.0000   -0.0000    0.0000 C   0  0  0  0  0  0  0  0  0  0  0  0
    0.8001    1.3856    0.0000 C   0  0  0  0  0  0  0  0  0  0  0  0
    0.0000    2.7713    0.0000 H   0  0  0  0  0  0  0  0  0  0  0  0
    2.4001    1.3856    0.0000 C   0  0  0  0  0  0  0  0  0  0  0  0
    3.2000    2.7713    0.0000 H   0  0  0  0  0  0  0  0  0  0  0  0
    3.2000   -0.0000    0.0000 C   0  0  0  0  0  0  0  0  0  0  0  0
    4.8000   -0.0000    0.0000 H   0  0  0  0  0  0  0  0  0  0  0  0
    2.4001   -1.3856    0.0000 C   0  0  0  0  0  0  0  0  0  0  0  0
    3.2000   -2.7713    0.0000 H   0  0  0  0  0  0  0  0  0  0  0  0
    0.8001   -1.3856    0.0000 C   0  0  0  0  0  0  0  0  0  0  0  0
    0.0000   -2.7713    0.0000 H   0  0  0  0  0  0  0  0  0  0  0  0
   -3.2000   -0.0000    0.0000 O   0  0  0  0  0  0  0  0  0  0  0  0
   -1.6000    1.6000    0.0000 O   0  0  0  0  0  0  0  0  0  0  0  0
  1  2  1  0  0  0  0
  2  3  1  0  0  0  0
  3  4  1  0  0  0  0
  4  5  1  0  0  0  0
  4  6  2  0  0  0  0
  6  7  1  0  0  0  0
  6  8  1  0  0  0  0
  8  9  1  0  0  0  0
  8 10  2  0  0  0  0
 10 11  1  0  0  0  0
 10 12  1  0  0  0  0
 12  3  2  0  0  0  0
 12 13  1  0  0  0  0
  2 14  2  0  0  0  0
  2 15  2  0  0  0  0
M  END
> <ChemID>
100454

> <source_casrn>
98-09-9

> <CAS>
98-09-9

> <SMILES>
O=S(=O)(Cl)c1ccccc1

> <NAME>
BENZENESULFONYL CHLORIDE

> <preferred_name>
Benzenesulfonyl chloride

> <iupac>
benzenesulfonyl chloride

> <MPID>
25090

> <dsstox_substance_id>
DTXSID1026619

> <Canonical_QSARr>
O=S(=O)(Cl)c1ccccc1

> <InChI_Code_QSARr>
InChI=1S/C6H5ClO2S/c7-10(8,9)6-4-2-1-3-5-6/h1-5H

> <InChI Key_QSARr>
CSKNSYBAZOQPLR-UHFFFAOYSA-N

> <Salt_Solvent>
?

> <LogVP>
-1.2366

$$$$
100458
  -INDIGO-08031723152D

 31 31  0  0  0  0  0  0  0  0999 V2000
    2.7713   -1.6000    0.0000 C   0  0  0  0  0  0  0  0  0  0  0  0
    3.3186   -3.1035    0.0000 H   0  0  0  0  0  0  0  0  0  0  0  0
    2.7713    0.0000    0.0000 C   0  0  0  0  0  0  0  0  0  0  0  0
    4.3469   -0.2778    0.0000 H   0  0  0  0  0  0  0  0  0  0  0  0
    3.3186    1.5035    0.0000 H   0  0  0  0  0  0  0  0  0  0  0  0
    1.3856    0.8000    0.0000 C   0  0  0  0  0  0  0  0  0  0  0  0
    2.4141    2.0256    0.0000 H   0  0  0  0  0  0  0  0  0  0  0  0
    0.3572    2.0256    0.0000 H   0  0  0  0  0  0  0  0  0  0  0  0
    0.0001    0.0000    0.0000 C   0  0  0  0  0  0  0  0  0  0  0  0
   -0.5472    1.5035    0.0000 H   0  0  0  0  0  0  0  0  0  0  0  0
   -1.5757   -0.2778    0.0000 C   0  0  0  0  0  0  0  0  0  0  0  0
   -3.1513   -0.5557    0.0000 C   0  0  0  0  0  0  0  0  0  0  0  0
   -4.7271   -0.8335    0.0000 H   0  0  0  0  0  0  0  0  0  0  0  0
   -4.1798    0.6700    0.0000 H   0  0  0  0  0  0  0  0  0  0  0  0
   -3.6986   -2.0592    0.0000 H   0  0  0  0  0  0  0  0  0  0  0  0
   -1.8535    1.2978    0.0000 C   0  0  0  0  0  0  0  0  0  0  0  0
   -2.1314    2.8735    0.0000 H   0  0  0  0  0  0  0  0  0  0  0  0
   -0.6278    2.3263    0.0000 H   0  0  0  0  0  0  0  0  0  0  0  0
   -3.3571    1.8450    0.0000 H   0  0  0  0  0  0  0  0  0  0  0  0
   -1.2979   -1.8536    0.0000 C   0  0  0  0  0  0  0  0  0  0  0  0
   -2.5236   -2.8820    0.0000 H   0  0  0  0  0  0  0  0  0  0  0  0
   -1.2979   -3.4535    0.0000 H   0  0  0  0  0  0  0  0  0  0  0  0
   -2.8014   -1.3063    0.0000 H   0  0  0  0  0  0  0  0  0  0  0  0
    0.0001   -1.6000    0.0000 C   0  0  0  0  0  0  0  0  0  0  0  0
   -1.5036   -1.0528    0.0000 H   0  0  0  0  0  0  0  0  0  0  0  0
   -0.5472   -3.1035    0.0000 H   0  0  0  0  0  0  0  0  0  0  0  0
    1.3856   -2.4000    0.0000 C   0  0  0  0  0  0  0  0  0  0  0  0
    0.3572   -3.6257    0.0000 H   0  0  0  0  0  0  0  0  0  0  0  0
    2.4141   -3.6257    0.0000 H   0  0  0  0  0  0  0  0  0  0  0  0
    4.3469   -1.3222    0.0000 O   0  0  0  0  0  0  0  0  0  0  0  0
    5.3754   -2.5479    0.0000 H   0  0  0  0  0  0  0  0  0  0  0  0
  1  2  1  0  0  0  0
  1  3  1  0  0  0  0
  3  4  1  0  0  0  0
  3  5  1  0  0  0  0
  3  6  1  0  0  0  0
  6  7  1  0  0  0  0
  6  8  1  0  0  0  0
  6  9  1  0  0  0  0
  9 10  1  0  0  0  0
  9 11  1  0  0  0  0
 11 12  1  0  0  0  0
 12 13  1  0  0  0  0
 12 14  1  0  0  0  0
 12 15  1  0  0  0  0
 11 16  1  0  0  0  0
 16 17  1  0  0  0  0
 16 18  1  0  0  0  0
 16 19  1  0  0  0  0
 11 20  1  0  0  0  0
 20 21  1  0  0  0  0
 20 22  1  0  0  0  0
 20 23  1  0  0  0  0
  9 24  1  0  0  0  0
 24 25  1  0  0  0  0
 24 26  1  0  0  0  0
 24 27  1  0  0  0  0
 27  1  1  0  0  0  0
 27 28  1  0  0  0  0
 27 29  1  0  0  0  0
  1 30  1  0  0  0  0
 30 31  1  0  0  0  0
M  END
> <ChemID>
100458

> <source_casrn>
98-52-2

> <CAS>
98-52-2

> <SMILES>
CC(C)(C)C1CCC(O)CC1

> <NAME>
Cyclohexanol, 4-(1,1-dimethylethyl)-

> <preferred_name>
4-tert-Butylcyclohexanol

> <iupac>
4-tert-butylcyclohexanol

> <MPID>
25094

> <dsstox_substance_id>
DTXSID5026623

> <Canonical_QSARr>
CC(C)(C)C1CCC(O)CC1

> <InChI_Code_QSARr>
InChI=1S/C10H20O/c1-10(2,3)8-4-6-9(11)7-5-8/h8-9,11H,4-7H2,1-3H3

> <InChI Key_QSARr>
CCOQPGVQAWPUPE-UHFFFAOYSA-N

> <Salt_Solvent>
?

> <LogVP>
-1.1549

$$$$
100462
  -INDIGO-08031723152D

 21 21  0  0  0  0  0  0  0  0999 V2000
   -2.4000    1.3857    0.0000 C   0  0  0  0  0  0  0  0  0  0  0  0
   -1.6000    2.7713    0.0000 H   0  0  0  0  0  0  0  0  0  0  0  0
   -4.0000    1.3857    0.0000 C   0  0  0  0  0  0  0  0  0  0  0  0
   -4.8000    2.7713    0.0000 H   0  0  0  0  0  0  0  0  0  0  0  0
   -4.8000    0.0000    0.0000 C   0  0  0  0  0  0  0  0  0  0  0  0
   -6.4000    0.0000    0.0000 H   0  0  0  0  0  0  0  0  0  0  0  0
   -4.0000   -1.3856    0.0000 C   0  0  0  0  0  0  0  0  0  0  0  0
   -4.8000   -2.7713    0.0000 H   0  0  0  0  0  0  0  0  0  0  0  0
   -2.4000   -1.3856    0.0000 C   0  0  0  0  0  0  0  0  0  0  0  0
   -1.6000   -2.7713    0.0000 H   0  0  0  0  0  0  0  0  0  0  0  0
   -1.6000    0.0000    0.0000 C   0  0  0  0  0  0  0  0  0  0  0  0
   -0.0001    0.0000    0.0000 C   0  0  0  0  0  0  0  0  0  0  0  0
   -0.0001    1.6000    0.0000 H   0  0  0  0  0  0  0  0  0  0  0  0
    1.5757    0.2778    0.0000 C   0  0  0  0  0  0  0  0  0  0  0  0
    3.1514    0.5557    0.0000 H   0  0  0  0  0  0  0  0  0  0  0  0
    2.1229    1.7813    0.0000 H   0  0  0  0  0  0  0  0  0  0  0  0
    2.6041   -0.9478    0.0000 H   0  0  0  0  0  0  0  0  0  0  0  0
   -0.0001   -1.6000    0.0000 C   0  0  0  0  0  0  0  0  0  0  0  0
   -0.0001   -3.2000    0.0000 H   0  0  0  0  0  0  0  0  0  0  0  0
    1.3857   -2.4000    0.0000 H   0  0  0  0  0  0  0  0  0  0  0  0
    1.3857   -0.8000    0.0000 H   0  0  0  0  0  0  0  0  0  0  0  0
  1  2  1  0  0  0  0
  1  3  1  0  0  0  0
  3  4  1  0  0  0  0
  3  5  2  0  0  0  0
  5  6  1  0  0  0  0
  5  7  1  0  0  0  0
  7  8  1  0  0  0  0
  7  9  2  0  0  0  0
  9 10  1  0  0  0  0
  9 11  1  0  0  0  0
 11  1  2  0  0  0  0
 11 12  1  0  0  0  0
 12 13  1  0  0  0  0
 12 14  1  0  0  0  0
 14 15  1  0  0  0  0
 14 16  1  0  0  0  0
 14 17  1  0  0  0  0
 12 18  1  0  0  0  0
 18 19  1  0  0  0  0
 18 20  1  0  0  0  0
 18 21  1  0  0  0  0
M  END
> <ChemID>
100462

> <source_casrn>
98-82-8

> <CAS>
98-82-8

> <SMILES>
CC(C)c1ccccc1

> <NAME>
CUMENE

> <preferred_name>
Cumene

> <iupac>
propan-2-ylbenzene

> <MPID>
25098

> <dsstox_substance_id>
DTXSID1021827

> <Canonical_QSARr>
CC(C)c1ccccc1

> <InChI_Code_QSARr>
InChI=1S/C9H12/c1-8(2)9-6-4-3-5-7-9/h3-8H,1-2H3

> <InChI Key_QSARr>
RWGFKTVRMDUZSP-UHFFFAOYSA-N

> <Salt_Solvent>
?

> <LogVP>
0.6532

$$$$
100466
  -INDIGO-08031723152D

 14 14  0  0  0  0  0  0  0  0999 V2000
    2.4000   -1.3856    0.0000 Cl  0  0  0  0  0  0  0  0  0  0  0  0
    1.6000   -0.0000    0.0000 C   0  0  0  0  0  0  0  0  0  0  0  0
    2.4000    1.3856    0.0000 O   0  0  0  0  0  0  0  0  0  0  0  0
    0.0000   -0.0000    0.0000 C   0  0  0  0  0  0  0  0  0  0  0  0
   -0.8000    1.3856    0.0000 C   0  0  0  0  0  0  0  0  0  0  0  0
    0.0000    2.7713    0.0000 H   0  0  0  0  0  0  0  0  0  0  0  0
   -2.4000    1.3856    0.0000 C   0  0  0  0  0  0  0  0  0  0  0  0
   -3.2000    2.7713    0.0000 H   0  0  0  0  0  0  0  0  0  0  0  0
   -3.2000   -0.0000    0.0000 C   0  0  0  0  0  0  0  0  0  0  0  0
   -4.8000   -0.0000    0.0000 H   0  0  0  0  0  0  0  0  0  0  0  0
   -2.4000   -1.3856    0.0000 C   0  0  0  0  0  0  0  0  0  0  0  0
   -3.2000   -2.7713    0.0000 H   0  0  0  0  0  0  0  0  0  0  0  0
   -0.8000   -1.3856    0.0000 C   0  0  0  0  0  0  0  0  0  0  0  0
    0.0000   -2.7713    0.0000 H   0  0  0  0  0  0  0  0  0  0  0  0
  1  2  1  0  0  0  0
  2  3  2  0  0  0  0
  2  4  1  0  0  0  0
  4  5  1  0  0  0  0
  5  6  1  0  0  0  0
  5  7  2  0  0  0  0
  7  8  1  0  0  0  0
  7  9  1  0  0  0  0
  9 10  1  0  0  0  0
  9 11  2  0  0  0  0
 11 12  1  0  0  0  0
 11 13  1  0  0  0  0
 13  4  2  0  0  0  0
 13 14  1  0  0  0  0
M  END
> <ChemID>
100466

> <source_casrn>
98-88-4

> <CAS>
98-88-4

> <SMILES>
O=C(Cl)c1ccccc1

> <NAME>
BENZOYL CHLORIDE

> <preferred_name>
Benzoyl chloride

> <iupac>
benzoyl chloride

> <MPID>
25102

> <dsstox_substance_id>
DTXSID9026631

> <Canonical_QSARr>
O=C(Cl)c1ccccc1

> <InChI_Code_QSARr>
InChI=1S/C7H5ClO/c8-7(9)6-4-2-1-3-5-6/h1-5H

> <InChI Key_QSARr>
PASDCCFISLVPSO-UHFFFAOYSA-N

> <Salt_Solvent>
?

> <LogVP>
-0.1549

$$$$
100470
  -INDIGO-08031723152D

 16 16  0  0  0  0  0  0  0  0999 V2000
    1.3857    0.8000    0.0000 N   0  0  0  0  0  0  0  0  0  0  0  0
    2.7713   -0.0000    0.0000 O   0  0  0  0  0  0  0  0  0  0  0  0
    1.3856    2.4000    0.0000 O   0  0  0  0  0  0  0  0  0  0  0  0
    0.0000   -0.0000    0.0000 C   0  0  0  0  0  0  0  0  0  0  0  0
    0.0000   -1.6000    0.0000 C   0  0  0  0  0  0  0  0  0  0  0  0
    1.3857   -2.4000    0.0000 H   0  0  0  0  0  0  0  0  0  0  0  0
   -1.3856   -2.4000    0.0000 C   0  0  0  0  0  0  0  0  0  0  0  0
   -1.3856   -4.0000    0.0000 H   0  0  0  0  0  0  0  0  0  0  0  0
   -2.7713   -1.6000    0.0000 C   0  0  0  0  0  0  0  0  0  0  0  0
   -4.1570   -2.4000    0.0000 H   0  0  0  0  0  0  0  0  0  0  0  0
   -2.7713   -0.0000    0.0000 C   0  0  0  0  0  0  0  0  0  0  0  0
   -4.1569    0.8000    0.0000 N   0  0  0  0  0  0  0  0  0  0  0  0
   -5.5426   -0.0000    0.0000 H   0  0  0  0  0  0  0  0  0  0  0  0
   -4.1569    2.4000    0.0000 H   0  0  0  0  0  0  0  0  0  0  0  0
   -1.3856    0.8000    0.0000 C   0  0  0  0  0  0  0  0  0  0  0  0
   -1.3856    2.4000    0.0000 H   0  0  0  0  0  0  0  0  0  0  0  0
  1  2  2  0  0  0  0
  1  3  1  0  0  0  0
  1  4  1  0  0  0  0
  4  5  1  0  0  0  0
  5  6  1  0  0  0  0
  5  7  2  0  0  0  0
  7  8  1  0  0  0  0
  7  9  1  0  0  0  0
  9 10  1  0  0  0  0
  9 11  2  0  0  0  0
 11 12  1  0  0  0  0
 12 13  1  0  0  0  0
 12 14  1  0  0  0  0
 11 15  1  0  0  0  0
 15  4  2  0  0  0  0
 15 16  1  0  0  0  0
M  CHG  2   1   1   3  -1
M  END
> <ChemID>
100470

> <source_casrn>
99-09-2

> <CAS>
99-09-2

> <SMILES>
Nc1cc(ccc1)[N+]([O-])=O

> <NAME>
3-NITROANILINE

> <preferred_name>
3-Nitroaniline

> <iupac>
3-nitroaniline

> <MPID>
25106

> <dsstox_substance_id>
DTXSID6025725

> <Canonical_QSARr>
Nc1cc(ccc1)[N+]([O-])=O

> <InChI_Code_QSARr>
InChI=1S/C6H6N2O2/c7-5-2-1-3-6(4-5)8(9)10/h1-4H,7H2

> <InChI Key_QSARr>
XJCVRTZCHMZPBD-UHFFFAOYSA-N

> <Salt_Solvent>
?

> <LogVP>
-4.0195

$$$$
100474
  -INDIGO-08031723152D

 20 20  0  0  0  0  0  0  0  0999 V2000
    1.3857    2.4000    0.0000 C   0  0  0  0  0  0  0  0  0  0  0  0
    2.7713    3.2000    0.0000 H   0  0  0  0  0  0  0  0  0  0  0  0
    1.3857    4.0000    0.0000 H   0  0  0  0  0  0  0  0  0  0  0  0
    2.7713    1.6000    0.0000 H   0  0  0  0  0  0  0  0  0  0  0  0
    0.0000    1.6000    0.0000 C   0  0  0  0  0  0  0  0  0  0  0  0
   -1.3857    2.4000    0.0000 C   0  0  0  0  0  0  0  0  0  0  0  0
   -1.3857    4.0000    0.0000 H   0  0  0  0  0  0  0  0  0  0  0  0
   -2.7713    1.6000    0.0000 C   0  0  0  0  0  0  0  0  0  0  0  0
   -4.1570    2.4000    0.0000 H   0  0  0  0  0  0  0  0  0  0  0  0
   -2.7713    0.0000    0.0000 C   0  0  0  0  0  0  0  0  0  0  0  0
   -4.1569   -0.8000    0.0000 N   0  0  0  0  0  0  0  0  0  0  0  0
   -5.5426    0.0000    0.0000 O   0  0  0  0  0  0  0  0  0  0  0  0
   -4.1569   -2.4000    0.0000 O   0  0  0  0  0  0  0  0  0  0  0  0
   -1.3856   -0.8000    0.0000 C   0  0  0  0  0  0  0  0  0  0  0  0
   -1.3856   -2.4000    0.0000 H   0  0  0  0  0  0  0  0  0  0  0  0
    0.0000    0.0000    0.0000 C   0  0  0  0  0  0  0  0  0  0  0  0
    1.3857   -0.8000    0.0000 C   0  0  0  0  0  0  0  0  0  0  0  0
    2.7713   -1.6000    0.0000 H   0  0  0  0  0  0  0  0  0  0  0  0
    1.3857   -2.4000    0.0000 H   0  0  0  0  0  0  0  0  0  0  0  0
    2.7713    0.0000    0.0000 H   0  0  0  0  0  0  0  0  0  0  0  0
  1  2  1  0  0  0  0
  1  3  1  0  0  0  0
  1  4  1  0  0  0  0
  1  5  1  0  0  0  0
  5  6  1  0  0  0  0
  6  7  1  0  0  0  0
  6  8  2  0  0  0  0
  8  9  1  0  0  0  0
  8 10  1  0  0  0  0
 10 11  1  0  0  0  0
 11 12  1  0  0  0  0
 11 13  2  0  0  0  0
 10 14  2  0  0  0  0
 14 15  1  0  0  0  0
 14 16  1  0  0  0  0
 16  5  2  0  0  0  0
 16 17  1  0  0  0  0
 17 18  1  0  0  0  0
 17 19  1  0  0  0  0
 17 20  1  0  0  0  0
M  CHG  2  11   1  12  -1
M  END
> <ChemID>
100474

> <source_casrn>
99-51-4

> <CAS>
99-51-4

> <SMILES>
Cc1cc(ccc1C)[N+]([O-])=O

> <NAME>
1,2-DIMETHYL-4-NITROBENZENE

> <preferred_name>
1,2-Dimethyl-4-nitrobenzene

> <iupac>
1,2-dimethyl-4-nitrobenzene

> <MPID>
25110

> <dsstox_substance_id>
DTXSID2025133

> <Canonical_QSARr>
Cc1cc(ccc1C)[N+]([O-])=O

> <InChI_Code_QSARr>
InChI=1S/C8H9NO2/c1-6-3-4-8(9(10)11)5-7(6)2/h3-5H,1-2H3

> <InChI Key_QSARr>
HFZKOYWDLDYELC-UHFFFAOYSA-N

> <Salt_Solvent>
?

> <LogVP>
-2.4449

$$$$
100478
  -INDIGO-08031723152D

 16 16  0  0  0  0  0  0  0  0999 V2000
    0.0000   -0.0000    0.0000 C   0  0  0  0  0  0  0  0  0  0  0  0
    0.0000   -1.6000    0.0000 C   0  0  0  0  0  0  0  0  0  0  0  0
    1.3857   -2.4000    0.0000 H   0  0  0  0  0  0  0  0  0  0  0  0
   -1.3856   -2.4000    0.0000 C   0  0  0  0  0  0  0  0  0  0  0  0
   -1.3856   -4.0000    0.0000 H   0  0  0  0  0  0  0  0  0  0  0  0
   -2.7713   -1.6000    0.0000 C   0  0  0  0  0  0  0  0  0  0  0  0
   -4.1570   -2.4000    0.0000 H   0  0  0  0  0  0  0  0  0  0  0  0
   -2.7713   -0.0000    0.0000 C   0  0  0  0  0  0  0  0  0  0  0  0
   -4.1569    0.8000    0.0000 N   0  0  0  0  0  0  0  0  0  0  0  0
   -5.5426   -0.0000    0.0000 O   0  0  0  0  0  0  0  0  0  0  0  0
   -4.1569    2.4000    0.0000 O   0  0  0  0  0  0  0  0  0  0  0  0
   -1.3856    0.8000    0.0000 C   0  0  0  0  0  0  0  0  0  0  0  0
   -1.3856    2.4000    0.0000 H   0  0  0  0  0  0  0  0  0  0  0  0
    1.3857    0.8000    0.0000 N   0  0  0  0  0  0  0  0  0  0  0  0
    2.7713   -0.0000    0.0000 O   0  0  0  0  0  0  0  0  0  0  0  0
    1.3857    2.4000    0.0000 O   0  0  0  0  0  0  0  0  0  0  0  0
  1  2  1  0  0  0  0
  2  3  1  0  0  0  0
  2  4  2  0  0  0  0
  4  5  1  0  0  0  0
  4  6  1  0  0  0  0
  6  7  1  0  0  0  0
  6  8  2  0  0  0  0
  8  9  1  0  0  0  0
  9 10  1  0  0  0  0
  9 11  2  0  0  0  0
  8 12  1  0  0  0  0
 12  1  2  0  0  0  0
 12 13  1  0  0  0  0
  1 14  1  0  0  0  0
 14 15  1  0  0  0  0
 14 16  2  0  0  0  0
M  CHG  4   9   1  10  -1  14   1  15  -1
M  END
> <ChemID>
100478

> <source_casrn>
99-65-0

> <CAS>
99-65-0

> <SMILES>
[O-][N+](=O)c1cc(ccc1)[N+]([O-])=O

> <NAME>
1,3-DINITROBENZENE

> <preferred_name>
1,3-Dinitrobenzene

> <iupac>
1,3-dinitrobenzene

> <MPID>
25114

> <dsstox_substance_id>
DTXSID9024065

> <Canonical_QSARr>
[O-][N+](=O)c1cc(ccc1)[N+]([O-])=O

> <InChI_Code_QSARr>
InChI=1S/C6H4N2O4/c9-7(10)5-2-1-3-6(4-5)8(11)12/h1-4H

> <InChI Key_QSARr>
WDCYWAQPCXBPJA-UHFFFAOYSA-N

> <Salt_Solvent>
?

> <LogVP>
-3.0458

$$$$
100482
  -INDIGO-08031723152D

 26 26  0  0  0  0  0  0  0  0999 V2000
   -1.6000   -0.0000    0.0000 C   0  0  0  0  0  0  0  0  0  0  0  0
   -2.4001    1.3857    0.0000 C   0  0  0  0  0  0  0  0  0  0  0  0
   -1.6000    2.7713    0.0000 H   0  0  0  0  0  0  0  0  0  0  0  0
   -4.0001    1.3857    0.0000 C   0  0  0  0  0  0  0  0  0  0  0  0
   -3.7222    2.9613    0.0000 H   0  0  0  0  0  0  0  0  0  0  0  0
   -5.5034    1.9329    0.0000 H   0  0  0  0  0  0  0  0  0  0  0  0
   -4.8000   -0.0000    0.0000 C   0  0  0  0  0  0  0  0  0  0  0  0
   -6.4000   -0.0000    0.0000 C   0  0  0  0  0  0  0  0  0  0  0  0
   -8.0000   -0.0000    0.0000 H   0  0  0  0  0  0  0  0  0  0  0  0
   -7.2001   -1.3856    0.0000 H   0  0  0  0  0  0  0  0  0  0  0  0
   -7.2001    1.3857    0.0000 H   0  0  0  0  0  0  0  0  0  0  0  0
   -4.0001   -1.3856    0.0000 C   0  0  0  0  0  0  0  0  0  0  0  0
   -4.8000   -2.7713    0.0000 H   0  0  0  0  0  0  0  0  0  0  0  0
   -2.4001   -1.3856    0.0000 C   0  0  0  0  0  0  0  0  0  0  0  0
   -2.6778   -2.9613    0.0000 H   0  0  0  0  0  0  0  0  0  0  0  0
   -1.0143   -2.1856    0.0000 H   0  0  0  0  0  0  0  0  0  0  0  0
    0.0000   -0.0000    0.0000 C   0  0  0  0  0  0  0  0  0  0  0  0
    0.0000   -1.6000    0.0000 H   0  0  0  0  0  0  0  0  0  0  0  0
    1.5757   -0.2778    0.0000 C   0  0  0  0  0  0  0  0  0  0  0  0
    3.1514   -0.5557    0.0000 H   0  0  0  0  0  0  0  0  0  0  0  0
    2.6042    0.9478    0.0000 H   0  0  0  0  0  0  0  0  0  0  0  0
    2.1229   -1.7813    0.0000 H   0  0  0  0  0  0  0  0  0  0  0  0
    0.0000    1.6000    0.0000 C   0  0  0  0  0  0  0  0  0  0  0  0
    0.0000    3.2000    0.0000 H   0  0  0  0  0  0  0  0  0  0  0  0
    1.3856    2.4000    0.0000 H   0  0  0  0  0  0  0  0  0  0  0  0
    1.3856    0.8000    0.0000 H   0  0  0  0  0  0  0  0  0  0  0  0
  1  2  2  0  0  0  0
  2  3  1  0  0  0  0
  2  4  1  0  0  0  0
  4  5  1  0  0  0  0
  4  6  1  0  0  0  0
  4  7  1  0  0  0  0
  7  8  1  0  0  0  0
  8  9  1  0  0  0  0
  8 10  1  0  0  0  0
  8 11  1  0  0  0  0
  7 12  2  0  0  0  0
 12 13  1  0  0  0  0
 12 14  1  0  0  0  0
 14  1  1  0  0  0  0
 14 15  1  0  0  0  0
 14 16  1  0  0  0  0
  1 17  1  0  0  0  0
 17 18  1  0  0  0  0
 17 19  1  0  0  0  0
 19 20  1  0  0  0  0
 19 21  1  0  0  0  0
 19 22  1  0  0  0  0
 17 23  1  0  0  0  0
 23 24  1  0  0  0  0
 23 25  1  0  0  0  0
 23 26  1  0  0  0  0
M  END
> <ChemID>
100482

> <source_casrn>
99-85-4

> <CAS>
99-85-4

> <SMILES>
CC1CC=C(CC=1)C(C)C

> <NAME>
GAMMA-TERPINENE

> <preferred_name>
gamma-Terpinene

> <iupac>
1-methyl-4-(propan-2-yl)cyclohexa-1,4-diene

> <MPID>
25118

> <dsstox_substance_id>
DTXSID6041210

> <Canonical_QSARr>
CC1CC=C(CC=1)C(C)C

> <InChI_Code_QSARr>
InChI=1S/C10H16/c1-8(2)10-6-4-9(3)5-7-10/h4,7-8H,5-6H2,1-3H3

> <InChI Key_QSARr>
YKFLAYDHMOASIY-UHFFFAOYSA-N

> <Salt_Solvent>
?

> <LogVP>
0.0362

$$$$
100486
  -INDIGO-08031723152D

 18 18  0  0  0  0  0  0  0  0999 V2000
    1.6000   -0.0000    0.0000 C   0  0  0  0  0  0  0  0  0  0  0  0
    3.2000   -0.0000    0.0000 H   0  0  0  0  0  0  0  0  0  0  0  0
    2.4000   -1.3856    0.0000 H   0  0  0  0  0  0  0  0  0  0  0  0
    2.4000    1.3856    0.0000 H   0  0  0  0  0  0  0  0  0  0  0  0
   -0.0001   -0.0000    0.0000 C   0  0  0  0  0  0  0  0  0  0  0  0
   -0.8000    1.3856    0.0000 C   0  0  0  0  0  0  0  0  0  0  0  0
   -0.0001    2.7713    0.0000 H   0  0  0  0  0  0  0  0  0  0  0  0
   -2.4000    1.3856    0.0000 C   0  0  0  0  0  0  0  0  0  0  0  0
   -3.2000    2.7713    0.0000 H   0  0  0  0  0  0  0  0  0  0  0  0
   -3.2000   -0.0000    0.0000 C   0  0  0  0  0  0  0  0  0  0  0  0
   -4.8001   -0.0000    0.0000 C   0  0  0  0  0  0  0  0  0  0  0  0
   -5.6000    1.3856    0.0000 O   0  0  0  0  0  0  0  0  0  0  0  0
   -7.2000    1.3856    0.0000 H   0  0  0  0  0  0  0  0  0  0  0  0
   -5.6000   -1.3856    0.0000 O   0  0  0  0  0  0  0  0  0  0  0  0
   -2.4000   -1.3856    0.0000 C   0  0  0  0  0  0  0  0  0  0  0  0
   -3.2000   -2.7713    0.0000 H   0  0  0  0  0  0  0  0  0  0  0  0
   -0.8000   -1.3856    0.0000 C   0  0  0  0  0  0  0  0  0  0  0  0
   -0.0001   -2.7713    0.0000 H   0  0  0  0  0  0  0  0  0  0  0  0
  1  2  1  0  0  0  0
  1  3  1  0  0  0  0
  1  4  1  0  0  0  0
  1  5  1  0  0  0  0
  5  6  1  0  0  0  0
  6  7  1  0  0  0  0
  6  8  2  0  0  0  0
  8  9  1  0  0  0  0
  8 10  1  0  0  0  0
 10 11  1  0  0  0  0
 11 12  1  0  0  0  0
 12 13  1  0  0  0  0
 11 14  2  0  0  0  0
 10 15  2  0  0  0  0
 15 16  1  0  0  0  0
 15 17  1  0  0  0  0
 17  5  2  0  0  0  0
 17 18  1  0  0  0  0
M  END
> <ChemID>
100486

> <source_casrn>
99-94-5

> <CAS>
99-94-5

> <SMILES>
Cc1ccc(cc1)C(O)=O

> <NAME>
P-TOLUIC ACID

> <preferred_name>
4-Methylbenzoic acid

> <iupac>
4-methylbenzoic acid

> <MPID>
25122

> <dsstox_substance_id>
DTXSID6021618

> <Canonical_QSARr>
Cc1ccc(cc1)C(O)=O

> <InChI_Code_QSARr>
InChI=1S/C8H8O2/c1-6-2-4-7(5-3-6)8(9)10/h2-5H,1H3,(H,9,10)

> <InChI Key_QSARr>
LPNBBFKOUUSUDB-UHFFFAOYSA-N

> <Salt_Solvent>
?

> <LogVP>
-4.2943

$$$$
100490
  -INDIGO-08031723152D

 14 14  0  0  0  0  0  0  0  0999 V2000
   -2.4000   -1.3856    0.0000 O   0  0  0  0  0  0  0  0  0  0  0  0
   -1.6000   -0.0000    0.0000 N   0  0  0  0  0  0  0  0  0  0  0  0
    0.0000   -0.0000    0.0000 C   0  0  0  0  0  0  0  0  0  0  0  0
    0.8000    1.3856    0.0000 C   0  0  0  0  0  0  0  0  0  0  0  0
    0.0000    2.7713    0.0000 H   0  0  0  0  0  0  0  0  0  0  0  0
    2.4000    1.3856    0.0000 C   0  0  0  0  0  0  0  0  0  0  0  0
    3.2000    2.7713    0.0000 H   0  0  0  0  0  0  0  0  0  0  0  0
    3.2000   -0.0000    0.0000 C   0  0  0  0  0  0  0  0  0  0  0  0
    4.8000   -0.0000    0.0000 Cl  0  0  0  0  0  0  0  0  0  0  0  0
    2.4000   -1.3856    0.0000 C   0  0  0  0  0  0  0  0  0  0  0  0
    3.2000   -2.7713    0.0000 H   0  0  0  0  0  0  0  0  0  0  0  0
    0.8000   -1.3856    0.0000 C   0  0  0  0  0  0  0  0  0  0  0  0
    0.0000   -2.7713    0.0000 H   0  0  0  0  0  0  0  0  0  0  0  0
   -2.4000    1.3856    0.0000 O   0  0  0  0  0  0  0  0  0  0  0  0
  1  2  2  0  0  0  0
  2  3  1  0  0  0  0
  3  4  1  0  0  0  0
  4  5  1  0  0  0  0
  4  6  2  0  0  0  0
  6  7  1  0  0  0  0
  6  8  1  0  0  0  0
  8  9  1  0  0  0  0
  8 10  2  0  0  0  0
 10 11  1  0  0  0  0
 10 12  1  0  0  0  0
 12  3  2  0  0  0  0
 12 13  1  0  0  0  0
  2 14  1  0  0  0  0
M  CHG  2   2   1  14  -1
M  END
> <ChemID>
100490

> <source_casrn>
100-00-5

> <CAS>
100-00-5

> <SMILES>
[O-][N+](=O)c1ccc(Cl)cc1

> <NAME>
P-CHLORONITROBENZENE

> <preferred_name>
1-Chloro-4-nitrobenzene

> <iupac>
1-chloro-4-nitrobenzene

> <MPID>
25126

> <dsstox_substance_id>
DTXSID5020281

> <Canonical_QSARr>
[O-][N+](=O)c1ccc(Cl)cc1

> <InChI_Code_QSARr>
InChI=1S/C6H4ClNO2/c7-5-1-3-6(4-2-5)8(9)10/h1-4H

> <InChI Key_QSARr>
CZGCEKJOLUNIFY-UHFFFAOYSA-N

> <Salt_Solvent>
?

> <LogVP>
-1.6596

$$$$
100494
  -INDIGO-08031723152D

 22 22  0  0  0  0  0  0  0  0999 V2000
    2.4001    1.3856    0.0000 C   0  0  0  0  0  0  0  0  0  0  0  0
    3.2000    2.7713    0.0000 H   0  0  0  0  0  0  0  0  0  0  0  0
    4.0000    1.3856    0.0000 H   0  0  0  0  0  0  0  0  0  0  0  0
    1.6000    2.7713    0.0000 H   0  0  0  0  0  0  0  0  0  0  0  0
    1.6000   -0.0000    0.0000 N   0  0  0  0  0  0  0  0  0  0  0  0
    2.3999   -1.3856    0.0000 C   0  0  0  0  0  0  0  0  0  0  0  0
    3.2000   -2.7713    0.0000 H   0  0  0  0  0  0  0  0  0  0  0  0
    4.0000   -1.3856    0.0000 H   0  0  0  0  0  0  0  0  0  0  0  0
    1.6000   -2.7713    0.0000 H   0  0  0  0  0  0  0  0  0  0  0  0
    0.0000    0.0000    0.0000 C   0  0  0  0  0  0  0  0  0  0  0  0
   -0.7999    1.3856    0.0000 C   0  0  0  0  0  0  0  0  0  0  0  0
    0.0000    2.7713    0.0000 H   0  0  0  0  0  0  0  0  0  0  0  0
   -2.4000    1.3856    0.0000 C   0  0  0  0  0  0  0  0  0  0  0  0
   -3.2000    2.7713    0.0000 H   0  0  0  0  0  0  0  0  0  0  0  0
   -3.2000    0.0000    0.0000 C   0  0  0  0  0  0  0  0  0  0  0  0
   -4.8000   -0.0000    0.0000 C   0  0  0  0  0  0  0  0  0  0  0  0
   -5.6000    1.3856    0.0000 H   0  0  0  0  0  0  0  0  0  0  0  0
   -5.6000   -1.3856    0.0000 O   0  0  0  0  0  0  0  0  0  0  0  0
   -2.4000   -1.3856    0.0000 C   0  0  0  0  0  0  0  0  0  0  0  0
   -3.2000   -2.7713    0.0000 H   0  0  0  0  0  0  0  0  0  0  0  0
   -0.8001   -1.3856    0.0000 C   0  0  0  0  0  0  0  0  0  0  0  0
    0.0000   -2.7713    0.0000 H   0  0  0  0  0  0  0  0  0  0  0  0
  1  2  1  0  0  0  0
  1  3  1  0  0  0  0
  1  4  1  0  0  0  0
  1  5  1  0  0  0  0
  5  6  1  0  0  0  0
  6  7  1  0  0  0  0
  6  8  1  0  0  0  0
  6  9  1  0  0  0  0
  5 10  1  0  0  0  0
 10 11  1  0  0  0  0
 11 12  1  0  0  0  0
 11 13  2  0  0  0  0
 13 14  1  0  0  0  0
 13 15  1  0  0  0  0
 15 16  1  0  0  0  0
 16 17  1  0  0  0  0
 16 18  2  0  0  0  0
 15 19  2  0  0  0  0
 19 20  1  0  0  0  0
 19 21  1  0  0  0  0
 21 10  2  0  0  0  0
 21 22  1  0  0  0  0
M  END
> <ChemID>
100494

> <source_casrn>
100-10-7

> <CAS>
100-10-7

> <SMILES>
CN(C)c1ccc(C=O)cc1

> <NAME>
P-FORMYL-N,N-DIMETHYLANILINE

> <preferred_name>
4-Dimethylaminobenzaldehyde

> <iupac>
4-(dimethylamino)benzaldehyde

> <MPID>
25130

> <dsstox_substance_id>
DTXSID5021835

> <Canonical_QSARr>
CN(C)c1ccc(C=O)cc1

> <InChI_Code_QSARr>
InChI=1S/C9H11NO/c1-10(2)9-5-3-8(7-11)4-6-9/h3-7H,1-2H3

> <InChI Key_QSARr>
BGNGWHSBYQYVRX-UHFFFAOYSA-N

> <Salt_Solvent>
?

> <LogVP>
-2.4343

$$$$
100498
  -INDIGO-08031723152D

 23 22  0  0  0  0  0  0  0  0999 V2000
    2.4001   -1.3856    0.0000 C   0  0  0  0  0  0  0  0  0  0  0  0
    3.2000   -2.7713    0.0000 H   0  0  0  0  0  0  0  0  0  0  0  0
    4.0000   -1.3856    0.0000 H   0  0  0  0  0  0  0  0  0  0  0  0
    1.6000   -2.7713    0.0000 H   0  0  0  0  0  0  0  0  0  0  0  0
    1.6000    0.0000    0.0000 C   0  0  0  0  0  0  0  0  0  0  0  0
    2.8694    0.9740    0.0000 H   0  0  0  0  0  0  0  0  0  0  0  0
    1.8088    1.5863    0.0000 H   0  0  0  0  0  0  0  0  0  0  0  0
   -0.0000    0.0000    0.0000 N   0  0  0  0  0  0  0  0  0  0  0  0
   -0.8000   -1.3856    0.0000 C   0  0  0  0  0  0  0  0  0  0  0  0
   -0.5911   -2.9720    0.0000 H   0  0  0  0  0  0  0  0  0  0  0  0
    0.4694   -2.3596    0.0000 H   0  0  0  0  0  0  0  0  0  0  0  0
   -2.4000   -1.3856    0.0000 C   0  0  0  0  0  0  0  0  0  0  0  0
   -2.6088   -2.9720    0.0000 H   0  0  0  0  0  0  0  0  0  0  0  0
   -3.6694   -2.3596    0.0000 H   0  0  0  0  0  0  0  0  0  0  0  0
   -3.2001    0.0000    0.0000 O   0  0  0  0  0  0  0  0  0  0  0  0
   -4.8000    0.0000    0.0000 H   0  0  0  0  0  0  0  0  0  0  0  0
   -0.8000    1.3857    0.0000 C   0  0  0  0  0  0  0  0  0  0  0  0
   -2.2782    1.9980    0.0000 H   0  0  0  0  0  0  0  0  0  0  0  0
   -2.2782    0.7733    0.0000 H   0  0  0  0  0  0  0  0  0  0  0  0
   -0.0000    2.7713    0.0000 C   0  0  0  0  0  0  0  0  0  0  0  0
    0.8000    4.1569    0.0000 H   0  0  0  0  0  0  0  0  0  0  0  0
   -0.8000    4.1569    0.0000 H   0  0  0  0  0  0  0  0  0  0  0  0
    1.6000    2.7713    0.0000 H   0  0  0  0  0  0  0  0  0  0  0  0
  1  2  1  0  0  0  0
  1  3  1  0  0  0  0
  1  4  1  0  0  0  0
  1  5  1  0  0  0  0
  5  6  1  0  0  0  0
  5  7  1  0  0  0  0
  5  8  1  0  0  0  0
  8  9  1  0  0  0  0
  9 10  1  0  0  0  0
  9 11  1  0  0  0  0
  9 12  1  0  0  0  0
 12 13  1  0  0  0  0
 12 14  1  0  0  0  0
 12 15  1  0  0  0  0
 15 16  1  0  0  0  0
  8 17  1  0  0  0  0
 17 18  1  0  0  0  0
 17 19  1  0  0  0  0
 17 20  1  0  0  0  0
 20 21  1  0  0  0  0
 20 22  1  0  0  0  0
 20 23  1  0  0  0  0
M  END
> <ChemID>
100498

> <source_casrn>
100-37-8

> <CAS>
100-37-8

> <SMILES>
CCN(CCO)CC

> <NAME>
2-(DIETHYLAMINO)-ETHANOL

> <preferred_name>
N,N-Diethylethanolamine

> <iupac>
C6H15NO

> <MPID>
25134

> <dsstox_substance_id>
DTXSID5021837

> <Canonical_QSARr>
CCN(CCO)CC

> <InChI_Code_QSARr>
InChI=1S/C6H15NO/c1-3-7(4-2)5-6-8/h8H,3-6H2,1-2H3

> <InChI Key_QSARr>
BFSVOASYOCHEOV-UHFFFAOYSA-N

> <Salt_Solvent>
?

> <LogVP>
0.1461

$$$$
100502
  -INDIGO-08031723152D

 16 16  0  0  0  0  0  0  0  0999 V2000
    2.7713   -0.0000    0.0000 C   0  0  0  0  0  0  0  0  0  0  0  0
    4.1569    0.8000    0.0000 H   0  0  0  0  0  0  0  0  0  0  0  0
    2.7713   -1.6000    0.0000 H   0  0  0  0  0  0  0  0  0  0  0  0
    1.3856    0.8000    0.0000 C   0  0  0  0  0  0  0  0  0  0  0  0
    1.3856    2.4000    0.0000 H   0  0  0  0  0  0  0  0  0  0  0  0
    0.0001   -0.0000    0.0000 C   0  0  0  0  0  0  0  0  0  0  0  0
    0.0001   -1.6000    0.0000 C   0  0  0  0  0  0  0  0  0  0  0  0
    1.3856   -2.4000    0.0000 H   0  0  0  0  0  0  0  0  0  0  0  0
   -1.3856   -2.4000    0.0000 C   0  0  0  0  0  0  0  0  0  0  0  0
   -1.3856   -4.0000    0.0000 H   0  0  0  0  0  0  0  0  0  0  0  0
   -2.7712   -1.6000    0.0000 C   0  0  0  0  0  0  0  0  0  0  0  0
   -4.1569   -2.4000    0.0000 H   0  0  0  0  0  0  0  0  0  0  0  0
   -2.7712   -0.0000    0.0000 C   0  0  0  0  0  0  0  0  0  0  0  0
   -4.1569    0.8000    0.0000 H   0  0  0  0  0  0  0  0  0  0  0  0
   -1.3856    0.8000    0.0000 C   0  0  0  0  0  0  0  0  0  0  0  0
   -1.3856    2.4000    0.0000 H   0  0  0  0  0  0  0  0  0  0  0  0
  1  2  1  0  0  0  0
  1  3  1  0  0  0  0
  1  4  2  0  0  0  0
  4  5  1  0  0  0  0
  4  6  1  0  0  0  0
  6  7  1  0  0  0  0
  7  8  1  0  0  0  0
  7  9  2  0  0  0  0
  9 10  1  0  0  0  0
  9 11  1  0  0  0  0
 11 12  1  0  0  0  0
 11 13  2  0  0  0  0
 13 14  1  0  0  0  0
 13 15  1  0  0  0  0
 15  6  2  0  0  0  0
 15 16  1  0  0  0  0
M  END
> <ChemID>
100502

> <source_casrn>
100-42-5

> <CAS>
100-42-5

> <SMILES>
C=Cc1ccccc1

> <NAME>
STYRENE

> <preferred_name>
Styrene

> <iupac>
ethenylbenzene

> <MPID>
25138

> <dsstox_substance_id>
DTXSID2021284

> <Canonical_QSARr>
C=Cc1ccccc1

> <InChI_Code_QSARr>
InChI=1S/C8H8/c1-2-8-6-4-3-5-7-8/h2-7H,1H2

> <InChI Key_QSARr>
PPBRXRYQALVLMV-UHFFFAOYSA-N

> <Salt_Solvent>
?

> <LogVP>
0.8062

$$$$
100506
  -INDIGO-08031723152D

 13 13  0  0  0  0  0  0  0  0999 V2000
   -3.2000   -0.0000    0.0000 N   0  0  0  0  0  0  0  0  0  0  0  0
   -1.6000   -0.0000    0.0000 C   0  0  0  0  0  0  0  0  0  0  0  0
    0.0000   -0.0000    0.0000 C   0  0  0  0  0  0  0  0  0  0  0  0
    0.8001    1.3856    0.0000 C   0  0  0  0  0  0  0  0  0  0  0  0
    0.0000    2.7713    0.0000 H   0  0  0  0  0  0  0  0  0  0  0  0
    2.4001    1.3856    0.0000 C   0  0  0  0  0  0  0  0  0  0  0  0
    3.2000    2.7713    0.0000 H   0  0  0  0  0  0  0  0  0  0  0  0
    3.2000   -0.0000    0.0000 C   0  0  0  0  0  0  0  0  0  0  0  0
    4.8000   -0.0000    0.0000 H   0  0  0  0  0  0  0  0  0  0  0  0
    2.4001   -1.3856    0.0000 C   0  0  0  0  0  0  0  0  0  0  0  0
    3.2000   -2.7713    0.0000 H   0  0  0  0  0  0  0  0  0  0  0  0
    0.8001   -1.3856    0.0000 C   0  0  0  0  0  0  0  0  0  0  0  0
    0.0000   -2.7713    0.0000 H   0  0  0  0  0  0  0  0  0  0  0  0
  1  2  3  0  0  0  0
  2  3  1  0  0  0  0
  3  4  1  0  0  0  0
  4  5  1  0  0  0  0
  4  6  2  0  0  0  0
  6  7  1  0  0  0  0
  6  8  1  0  0  0  0
  8  9  1  0  0  0  0
  8 10  2  0  0  0  0
 10 11  1  0  0  0  0
 10 12  1  0  0  0  0
 12  3  2  0  0  0  0
 12 13  1  0  0  0  0
M  END
> <ChemID>
100506

> <source_casrn>
100-47-0

> <CAS>
100-47-0

> <SMILES>
N#Cc1ccccc1

> <NAME>
BENZONITRILE

> <preferred_name>
Benzonitrile

> <iupac>
benzonitrile

> <MPID>
25142

> <dsstox_substance_id>
DTXSID7021491

> <Canonical_QSARr>
N#Cc1ccccc1

> <InChI_Code_QSARr>
InChI=1S/C7H5N/c8-6-7-4-2-1-3-5-7/h1-5H

> <InChI Key_QSARr>
JFDZBHWFFUWGJE-UHFFFAOYSA-N

> <Salt_Solvent>
?

> <LogVP>
-0.1146

$$$$
100510
  -INDIGO-08031723152D

 12 12  0  0  0  0  0  0  0  0999 V2000
    1.3856    2.4000    0.0000 N   0  0  0  0  0  0  0  0  0  0  0  0
    2.7713    1.6000    0.0000 C   0  0  0  0  0  0  0  0  0  0  0  0
    4.1569    2.4000    0.0000 H   0  0  0  0  0  0  0  0  0  0  0  0
    2.7713   -0.0000    0.0000 C   0  0  0  0  0  0  0  0  0  0  0  0
    4.1569   -0.8000    0.0000 H   0  0  0  0  0  0  0  0  0  0  0  0
    1.3856   -0.8000    0.0000 C   0  0  0  0  0  0  0  0  0  0  0  0
    1.3856   -2.4000    0.0000 H   0  0  0  0  0  0  0  0  0  0  0  0
    0.0000    0.0000    0.0000 C   0  0  0  0  0  0  0  0  0  0  0  0
   -1.3856   -0.8000    0.0000 C   0  0  0  0  0  0  0  0  0  0  0  0
   -2.7713   -1.6000    0.0000 N   0  0  0  0  0  0  0  0  0  0  0  0
    0.0000    1.6000    0.0000 C   0  0  0  0  0  0  0  0  0  0  0  0
   -1.3856    2.4000    0.0000 H   0  0  0  0  0  0  0  0  0  0  0  0
  1  2  1  0  0  0  0
  2  3  1  0  0  0  0
  2  4  2  0  0  0  0
  4  5  1  0  0  0  0
  4  6  1  0  0  0  0
  6  7  1  0  0  0  0
  6  8  2  0  0  0  0
  8  9  1  0  0  0  0
  9 10  3  0  0  0  0
  8 11  1  0  0  0  0
 11  1  2  0  0  0  0
 11 12  1  0  0  0  0
M  END
> <ChemID>
100510

> <source_casrn>
100-54-9

> <CAS>
100-54-9

> <SMILES>
N#Cc1c[n]ccc1

> <NAME>
3-CYANOPYRIDINE

> <preferred_name>
3-Pyridinecarbonitrile

> <iupac>
pyridine-3-carbonitrile

> <MPID>
25146

> <dsstox_substance_id>
DTXSID1026665

> <Canonical_QSARr>
N#Cc1c[n]ccc1

> <InChI_Code_QSARr>
InChI=1S/C6H4N2/c7-4-6-2-1-3-8-5-6/h1-3,5H

> <InChI Key_QSARr>
GZPHSAQLYPIAIN-UHFFFAOYSA-N

> <Salt_Solvent>
?

> <LogVP>
-0.5287

$$$$
100514
  -INDIGO-08031723152D

 16 16  0  0  0  0  0  0  0  0999 V2000
    0.0001   -0.0000    0.0000 C   0  0  0  0  0  0  0  0  0  0  0  0
    1.3856    0.8000    0.0000 O   0  0  0  0  0  0  0  0  0  0  0  0
    2.7713   -0.0000    0.0000 C   0  0  0  0  0  0  0  0  0  0  0  0
    4.1569    0.8000    0.0000 H   0  0  0  0  0  0  0  0  0  0  0  0
    4.1569   -0.8000    0.0000 H   0  0  0  0  0  0  0  0  0  0  0  0
    2.7713    1.6000    0.0000 H   0  0  0  0  0  0  0  0  0  0  0  0
    0.0001   -1.6000    0.0000 C   0  0  0  0  0  0  0  0  0  0  0  0
    1.3856   -2.4000    0.0000 H   0  0  0  0  0  0  0  0  0  0  0  0
   -1.3856   -2.4000    0.0000 C   0  0  0  0  0  0  0  0  0  0  0  0
   -1.3856   -4.0000    0.0000 H   0  0  0  0  0  0  0  0  0  0  0  0
   -2.7712   -1.6000    0.0000 C   0  0  0  0  0  0  0  0  0  0  0  0
   -4.1569   -2.4000    0.0000 H   0  0  0  0  0  0  0  0  0  0  0  0
   -2.7712   -0.0000    0.0000 C   0  0  0  0  0  0  0  0  0  0  0  0
   -4.1569    0.8000    0.0000 H   0  0  0  0  0  0  0  0  0  0  0  0
   -1.3856    0.8000    0.0000 C   0  0  0  0  0  0  0  0  0  0  0  0
   -1.3856    2.4000    0.0000 H   0  0  0  0  0  0  0  0  0  0  0  0
  1  2  1  0  0  0  0
  2  3  1  0  0  0  0
  3  4  1  0  0  0  0
  3  5  1  0  0  0  0
  3  6  1  0  0  0  0
  1  7  1  0  0  0  0
  7  8  1  0  0  0  0
  7  9  2  0  0  0  0
  9 10  1  0  0  0  0
  9 11  1  0  0  0  0
 11 12  1  0  0  0  0
 11 13  2  0  0  0  0
 13 14  1  0  0  0  0
 13 15  1  0  0  0  0
 15  1  2  0  0  0  0
 15 16  1  0  0  0  0
M  END
> <ChemID>
100514

> <source_casrn>
100-66-3

> <CAS>
100-66-3

> <SMILES>
COc1ccccc1

> <NAME>
ANISOLE

> <preferred_name>
Anisole

> <iupac>
methoxybenzene

> <MPID>
25150

> <dsstox_substance_id>
DTXSID4041608

> <Canonical_QSARr>
COc1ccccc1

> <InChI_Code_QSARr>
InChI=1S/C7H8O/c1-8-7-5-3-2-4-6-7/h2-6H,1H3

> <InChI Key_QSARr>
RDOXTESZEPMUJZ-UHFFFAOYSA-N

> <Salt_Solvent>
?

> <LogVP>
0.549

$$$$
100519
  -INDIGO-08031723152D

 21 21  0  0  0  0  0  0  0  0999 V2000
   -2.7713    1.6000    0.0000 O   0  0  0  0  0  0  0  0  0  0  0  0
   -1.3857    2.4000    0.0000 C   0  0  0  0  0  0  0  0  0  0  0  0
   -2.4141    3.6257    0.0000 H   0  0  0  0  0  0  0  0  0  0  0  0
   -0.3572    3.6257    0.0000 H   0  0  0  0  0  0  0  0  0  0  0  0
    0.0000    1.6000    0.0000 C   0  0  0  0  0  0  0  0  0  0  0  0
    0.5472    3.1035    0.0000 H   0  0  0  0  0  0  0  0  0  0  0  0
    1.5757    1.3221    0.0000 H   0  0  0  0  0  0  0  0  0  0  0  0
    0.0000    0.0000    0.0000 N   0  0  0  0  0  0  0  0  0  0  0  0
    1.3856   -0.8000    0.0000 C   0  0  0  0  0  0  0  0  0  0  0  0
    0.7734   -2.2782    0.0000 H   0  0  0  0  0  0  0  0  0  0  0  0
    1.9980   -2.2782    0.0000 H   0  0  0  0  0  0  0  0  0  0  0  0
    2.7713    0.0000    0.0000 C   0  0  0  0  0  0  0  0  0  0  0  0
    4.1569   -0.8000    0.0000 H   0  0  0  0  0  0  0  0  0  0  0  0
    4.1569    0.8000    0.0000 H   0  0  0  0  0  0  0  0  0  0  0  0
    2.7713   -1.6000    0.0000 H   0  0  0  0  0  0  0  0  0  0  0  0
   -1.3857   -0.8000    0.0000 C   0  0  0  0  0  0  0  0  0  0  0  0
   -0.3572   -2.0257    0.0000 H   0  0  0  0  0  0  0  0  0  0  0  0
   -2.4141   -2.0257    0.0000 H   0  0  0  0  0  0  0  0  0  0  0  0
   -2.7713    0.0000    0.0000 C   0  0  0  0  0  0  0  0  0  0  0  0
   -3.3185   -1.5035    0.0000 H   0  0  0  0  0  0  0  0  0  0  0  0
   -4.3470    0.2778    0.0000 H   0  0  0  0  0  0  0  0  0  0  0  0
  1  2  1  0  0  0  0
  2  3  1  0  0  0  0
  2  4  1  0  0  0  0
  2  5  1  0  0  0  0
  5  6  1  0  0  0  0
  5  7  1  0  0  0  0
  5  8  1  0  0  0  0
  8  9  1  0  0  0  0
  9 10  1  0  0  0  0
  9 11  1  0  0  0  0
  9 12  1  0  0  0  0
 12 13  1  0  0  0  0
 12 14  1  0  0  0  0
 12 15  1  0  0  0  0
  8 16  1  0  0  0  0
 16 17  1  0  0  0  0
 16 18  1  0  0  0  0
 16 19  1  0  0  0  0
 19  1  1  0  0  0  0
 19 20  1  0  0  0  0
 19 21  1  0  0  0  0
M  END
> <ChemID>
100519

> <source_casrn>
100-74-3

> <CAS>
100-74-3

> <SMILES>
CCN1CCOCC1

> <NAME>
4-ETHYLMORPHOLINE

> <preferred_name>
N-Ethylmorpholine

> <iupac>
4-ethylmorpholine

> <MPID>
25154

> <dsstox_substance_id>
DTXSID5025312

> <Canonical_QSARr>
CCN1CCOCC1

> <InChI_Code_QSARr>
InChI=1S/C6H13NO/c1-2-7-3-5-8-6-4-7/h2-6H2,1H3

> <InChI Key_QSARr>
HVCNXQOWACZAFN-UHFFFAOYSA-N

> <Salt_Solvent>
?

> <LogVP>
0.7016

$$$$
100523
  -INDIGO-08031723152D

 22 24  0  0  0  0  0  0  0  0999 V2000
   -0.0000   -0.0000    0.0000 N   0  0  0  0  0  0  0  0  0  0  0  0
    2.4492   -1.4140    0.0000 C   0  0  0  0  0  0  0  0  0  0  0  0
    3.4779   -2.6395    0.0000 H   0  0  0  0  0  0  0  0  0  0  0  0
    1.4208   -2.6398    0.0000 H   0  0  0  0  0  0  0  0  0  0  0  0
    4.8918   -0.0027    0.0000 N   0  0  0  0  0  0  0  0  0  0  0  0
    4.8969    2.8257    0.0000 C   0  0  0  0  0  0  0  0  0  0  0  0
    5.4450    4.3289    0.0000 H   0  0  0  0  0  0  0  0  0  0  0  0
    6.4723    2.5459    0.0000 H   0  0  0  0  0  0  0  0  0  0  0  0
    2.4478    4.2396    0.0000 N   0  0  0  0  0  0  0  0  0  0  0  0
   -0.0010    2.8221    0.0000 C   0  0  0  0  0  0  0  0  0  0  0  0
   -1.5765    2.5433    0.0000 H   0  0  0  0  0  0  0  0  0  0  0  0
   -0.5495    4.3251    0.0000 H   0  0  0  0  0  0  0  0  0  0  0  0
    2.3695    2.7582    0.0000 C   0  0  0  0  0  0  0  0  0  0  0  0
    1.3099    1.5593    0.0000 H   0  0  0  0  0  0  0  0  0  0  0  0
    1.0162    3.6120    0.0000 H   0  0  0  0  0  0  0  0  0  0  0  0
    2.3542    1.4845    0.0000 N   0  0  0  0  0  0  0  0  0  0  0  0
    3.5158    0.8139    0.0000 C   0  0  0  0  0  0  0  0  0  0  0  0
    3.5222    2.4139    0.0000 H   0  0  0  0  0  0  0  0  0  0  0  0
    4.9078    1.6028    0.0000 H   0  0  0  0  0  0  0  0  0  0  0  0
    1.1731    0.7804    0.0000 C   0  0  0  0  0  0  0  0  0  0  0  0
   -0.2485    1.5144    0.0000 H   0  0  0  0  0  0  0  0  0  0  0  0
    1.1244    2.3795    0.0000 H   0  0  0  0  0  0  0  0  0  0  0  0
  1  2  1  0  0  0  0
  2  3  1  0  0  0  0
  2  4  1  0  0  0  0
  2  5  1  0  0  0  0
  5  6  1  0  0  0  0
  6  7  1  0  0  0  0
  6  8  1  0  0  0  0
  6  9  1  0  0  0  0
  9 10  1  0  0  0  0
 10  1  1  0  0  0  0
 10 11  1  0  0  0  0
 10 12  1  0  0  0  0
  9 13  1  0  0  0  0
 13 14  1  0  0  0  0
 13 15  1  0  0  0  0
 13 16  1  0  0  0  0
 16 17  1  0  0  0  0
 17  5  1  0  0  0  0
 17 18  1  0  0  0  0
 17 19  1  0  0  0  0
 16 20  1  0  0  0  0
 20  1  1  0  0  0  0
 20 21  1  0  0  0  0
 20 22  1  0  0  0  0
M  END
> <ChemID>
100523

> <source_casrn>
100-97-0

> <CAS>
100-97-0

> <SMILES>
C1N2CN3CN1CN(C2)C3

> <NAME>
HEXAMETHYLENETETRAMINE

> <preferred_name>
Methenamine

> <iupac>
1,3,5,7-tetraazatricyclo[3.3.1.1~3,7~]decane

> <MPID>
25158

> <dsstox_substance_id>
DTXSID6020692

> <Canonical_QSARr>
C1N2CN3CN1CN(C2)C3

> <InChI_Code_QSARr>
InChI=1S/C6H12N4/c1-7-2-9-4-8(1)5-10(3-7)6-9/h1-6H2

> <InChI Key_QSARr>
VKYKSIONXSXAKP-UHFFFAOYSA-N

> <Salt_Solvent>
?

> <LogVP>
-2.3979

$$$$
100527
  -INDIGO-08031723152D

 21 21  0  0  0  0  0  0  0  0999 V2000
   -0.8000    1.3857    0.0000 C   0  0  0  0  0  0  0  0  0  0  0  0
    0.0000    2.7713    0.0000 H   0  0  0  0  0  0  0  0  0  0  0  0
   -2.4001    1.3857    0.0000 C   0  0  0  0  0  0  0  0  0  0  0  0
   -3.1999    2.7713    0.0000 H   0  0  0  0  0  0  0  0  0  0  0  0
   -3.1999    0.0000    0.0000 C   0  0  0  0  0  0  0  0  0  0  0  0
   -4.8000    0.0000    0.0000 H   0  0  0  0  0  0  0  0  0  0  0  0
   -2.4001   -1.3856    0.0000 C   0  0  0  0  0  0  0  0  0  0  0  0
   -3.1999   -2.7712    0.0000 H   0  0  0  0  0  0  0  0  0  0  0  0
   -0.8000   -1.3856    0.0000 C   0  0  0  0  0  0  0  0  0  0  0  0
    0.0000   -2.7712    0.0000 H   0  0  0  0  0  0  0  0  0  0  0  0
    0.0000    0.0000    0.0000 C   0  0  0  0  0  0  0  0  0  0  0  0
    1.6001    0.0000    0.0000 C   0  0  0  0  0  0  0  0  0  0  0  0
    2.1473    1.5035    0.0000 H   0  0  0  0  0  0  0  0  0  0  0  0
    2.8256   -1.0285    0.0000 C   0  0  0  0  0  0  0  0  0  0  0  0
    2.5479   -2.6041    0.0000 C   0  0  0  0  0  0  0  0  0  0  0  0
    3.7735   -3.6326    0.0000 H   0  0  0  0  0  0  0  0  0  0  0  0
    1.0444   -3.1514    0.0000 O   0  0  0  0  0  0  0  0  0  0  0  0
    4.3292   -0.4812    0.0000 C   0  0  0  0  0  0  0  0  0  0  0  0
    5.8327    0.0660    0.0000 H   0  0  0  0  0  0  0  0  0  0  0  0
    5.5549   -1.5097    0.0000 H   0  0  0  0  0  0  0  0  0  0  0  0
    4.6071    1.0945    0.0000 H   0  0  0  0  0  0  0  0  0  0  0  0
  1  2  1  0  0  0  0
  1  3  1  0  0  0  0
  3  4  1  0  0  0  0
  3  5  2  0  0  0  0
  5  6  1  0  0  0  0
  5  7  1  0  0  0  0
  7  8  1  0  0  0  0
  7  9  2  0  0  0  0
  9 10  1  0  0  0  0
  9 11  1  0  0  0  0
 11  1  2  0  0  0  0
 11 12  1  0  0  0  0
 12 13  1  0  0  0  0
 12 14  2  0  0  0  0
 14 15  1  0  0  0  0
 15 16  1  0  0  0  0
 15 17  2  0  0  0  0
 14 18  1  0  0  0  0
 18 19  1  0  0  0  0
 18 20  1  0  0  0  0
 18 21  1  0  0  0  0
M  END
> <ChemID>
100527

> <source_casrn>
101-39-3

> <CAS>
101-39-3

> <SMILES>
CC(=Cc1ccccc1)C=O

> <NAME>
2-Propenal, 2-methyl-3-phenyl-

> <preferred_name>
alpha-Methyl cinnamaldehyde

> <iupac>
C10H10O

> <MPID>
25162

> <dsstox_substance_id>
DTXSID4025587

> <Canonical_QSARr>
CC(=Cc1ccccc1)C=O

> <InChI_Code_QSARr>
InChI=1S/C10H10O/c1-9(8-11)7-10-5-3-2-4-6-10/h2-8H,1H3/b9-7-

> <InChI Key_QSARr>
VLUMOWNVWOXZAU-CLFYSBASSA-N

> <Salt_Solvent>
?

> <LogVP>
-1.8239

$$$$
100531
  -INDIGO-08031723152D

 29 30  0  0  0  0  0  0  0  0999 V2000
   -8.3597    1.3400    0.0000 O   0  0  0  0  0  0  0  0  0  0  0  0
   -7.3313    0.1143    0.0000 C   0  0  0  0  0  0  0  0  0  0  0  0
   -6.3027   -1.1113    0.0000 N   0  0  0  0  0  0  0  0  0  0  0  0
   -4.7271   -0.8335    0.0000 C   0  0  0  0  0  0  0  0  0  0  0  0
   -4.1798    0.6700    0.0000 C   0  0  0  0  0  0  0  0  0  0  0  0
   -5.2084    1.8957    0.0000 H   0  0  0  0  0  0  0  0  0  0  0  0
   -2.6042    0.9479    0.0000 C   0  0  0  0  0  0  0  0  0  0  0  0
   -2.0569    2.4513    0.0000 H   0  0  0  0  0  0  0  0  0  0  0  0
   -1.5758   -0.2778    0.0000 C   0  0  0  0  0  0  0  0  0  0  0  0
    0.0001    0.0000    0.0000 C   0  0  0  0  0  0  0  0  0  0  0  0
    0.8598    1.3494    0.0000 H   0  0  0  0  0  0  0  0  0  0  0  0
   -0.3464    1.5621    0.0000 H   0  0  0  0  0  0  0  0  0  0  0  0
    1.3857   -0.8000    0.0000 C   0  0  0  0  0  0  0  0  0  0  0  0
    2.7713    0.0000    0.0000 C   0  0  0  0  0  0  0  0  0  0  0  0
    2.7713    1.6000    0.0000 H   0  0  0  0  0  0  0  0  0  0  0  0
    4.1568   -0.8000    0.0000 C   0  0  0  0  0  0  0  0  0  0  0  0
    5.5427    0.0000    0.0000 H   0  0  0  0  0  0  0  0  0  0  0  0
    4.1568   -2.4000    0.0000 C   0  0  0  0  0  0  0  0  0  0  0  0
    5.5427   -3.2000    0.0000 N   0  0  0  0  0  0  0  0  0  0  0  0
    6.9283   -2.4000    0.0000 C   0  0  0  0  0  0  0  0  0  0  0  0
    8.3138   -1.6000    0.0000 O   0  0  0  0  0  0  0  0  0  0  0  0
    2.7713   -3.2000    0.0000 C   0  0  0  0  0  0  0  0  0  0  0  0
    2.7713   -4.8000    0.0000 H   0  0  0  0  0  0  0  0  0  0  0  0
    1.3857   -2.4000    0.0000 C   0  0  0  0  0  0  0  0  0  0  0  0
    0.0001   -3.2000    0.0000 H   0  0  0  0  0  0  0  0  0  0  0  0
   -2.1230   -1.7813    0.0000 C   0  0  0  0  0  0  0  0  0  0  0  0
   -1.0944   -3.0071    0.0000 H   0  0  0  0  0  0  0  0  0  0  0  0
   -3.6987   -2.0591    0.0000 C   0  0  0  0  0  0  0  0  0  0  0  0
   -4.2459   -3.5627    0.0000 H   0  0  0  0  0  0  0  0  0  0  0  0
  1  2  2  0  0  0  0
  2  3  2  0  0  0  0
  3  4  1  0  0  0  0
  4  5  1  0  0  0  0
  5  6  1  0  0  0  0
  5  7  2  0  0  0  0
  7  8  1  0  0  0  0
  7  9  1  0  0  0  0
  9 10  1  0  0  0  0
 10 11  1  0  0  0  0
 10 12  1  0  0  0  0
 10 13  1  0  0  0  0
 13 14  1  0  0  0  0
 14 15  1  0  0  0  0
 14 16  2  0  0  0  0
 16 17  1  0  0  0  0
 16 18  1  0  0  0  0
 18 19  1  0  0  0  0
 19 20  2  0  0  0  0
 20 21  2  0  0  0  0
 18 22  2  0  0  0  0
 22 23  1  0  0  0  0
 22 24  1  0  0  0  0
 24 13  2  0  0  0  0
 24 25  1  0  0  0  0
  9 26  2  0  0  0  0
 26 27  1  0  0  0  0
 26 28  1  0  0  0  0
 28  4  2  0  0  0  0
 28 29  1  0  0  0  0
M  END
> <ChemID>
100531

> <source_casrn>
101-68-8

> <CAS>
101-68-8

> <SMILES>
O=C=Nc1ccc(Cc2ccc(cc2)N=C=O)cc1

> <NAME>
DIPHENYL METHANE DIISOCYANATE

> <preferred_name>
4,4'-Diphenylmethane diisocyanate

> <iupac>
1,1'-methanediylbis(4-isocyanatobenzene)

> <MPID>
25166

> <dsstox_substance_id>
DTXSID7025180

> <Canonical_QSARr>
O=C=Nc1ccc(Cc2ccc(cc2)N=C=O)cc1

> <InChI_Code_QSARr>
InChI=1S/C15H10N2O2/c18-10-16-14-5-1-12(2-6-14)9-13-3-7-15(8-4-13)17-11-19/h1-8H,9H2

> <InChI Key_QSARr>
UPMLOUAZCHDJJD-UHFFFAOYSA-N

> <Salt_Solvent>
?

> <LogVP>
-5.301

$$$$
100535
  -INDIGO-08031723152D

 24 24  0  0  0  0  0  0  0  0999 V2000
    1.3857   -2.4000    0.0000 O   0  0  0  0  0  0  0  0  0  0  0  0
    1.3857   -0.8000    0.0000 C   0  0  0  0  0  0  0  0  0  0  0  0
    2.7712   -0.0000    0.0000 N   0  0  0  0  0  0  0  0  0  0  0  0
    2.7712    1.6000    0.0000 H   0  0  0  0  0  0  0  0  0  0  0  0
    4.1569   -0.8000    0.0000 C   0  0  0  0  0  0  0  0  0  0  0  0
    5.5426   -0.0000    0.0000 C   0  0  0  0  0  0  0  0  0  0  0  0
    5.5426    1.6000    0.0000 H   0  0  0  0  0  0  0  0  0  0  0  0
    6.9281   -0.8000    0.0000 C   0  0  0  0  0  0  0  0  0  0  0  0
    8.3138   -0.0000    0.0000 H   0  0  0  0  0  0  0  0  0  0  0  0
    6.9281   -2.4000    0.0000 C   0  0  0  0  0  0  0  0  0  0  0  0
    8.3138   -3.2000    0.0000 H   0  0  0  0  0  0  0  0  0  0  0  0
    5.5426   -3.2000    0.0000 C   0  0  0  0  0  0  0  0  0  0  0  0
    5.5426   -4.8000    0.0000 H   0  0  0  0  0  0  0  0  0  0  0  0
    4.1569   -2.4000    0.0000 C   0  0  0  0  0  0  0  0  0  0  0  0
    2.7712   -3.2000    0.0000 H   0  0  0  0  0  0  0  0  0  0  0  0
    0.0000   -0.0000    0.0000 C   0  0  0  0  0  0  0  0  0  0  0  0
    0.6124    1.4782    0.0000 H   0  0  0  0  0  0  0  0  0  0  0  0
   -0.6124    1.4782    0.0000 H   0  0  0  0  0  0  0  0  0  0  0  0
   -1.3857   -0.8000    0.0000 C   0  0  0  0  0  0  0  0  0  0  0  0
   -1.3857   -2.4000    0.0000 O   0  0  0  0  0  0  0  0  0  0  0  0
   -2.7712   -0.0000    0.0000 C   0  0  0  0  0  0  0  0  0  0  0  0
   -4.1569    0.8000    0.0000 H   0  0  0  0  0  0  0  0  0  0  0  0
   -4.1569   -0.8000    0.0000 H   0  0  0  0  0  0  0  0  0  0  0  0
   -2.7712    1.6000    0.0000 H   0  0  0  0  0  0  0  0  0  0  0  0
  1  2  2  0  0  0  0
  2  3  1  0  0  0  0
  3  4  1  0  0  0  0
  3  5  1  0  0  0  0
  5  6  1  0  0  0  0
  6  7  1  0  0  0  0
  6  8  2  0  0  0  0
  8  9  1  0  0  0  0
  8 10  1  0  0  0  0
 10 11  1  0  0  0  0
 10 12  2  0  0  0  0
 12 13  1  0  0  0  0
 12 14  1  0  0  0  0
 14  5  2  0  0  0  0
 14 15  1  0  0  0  0
  2 16  1  0  0  0  0
 16 17  1  0  0  0  0
 16 18  1  0  0  0  0
 16 19  1  0  0  0  0
 19 20  2  0  0  0  0
 19 21  1  0  0  0  0
 21 22  1  0  0  0  0
 21 23  1  0  0  0  0
 21 24  1  0  0  0  0
M  END
> <ChemID>
100535

> <source_casrn>
102-01-2

> <CAS>
102-01-2

> <SMILES>
CC(=O)CC(=O)Nc1ccccc1

> <NAME>
ACETOACETANILIDE

> <preferred_name>
Acetoacetanilide

> <iupac>
3-oxo-N-phenylbutanamide

> <MPID>
25170

> <dsstox_substance_id>
DTXSID0024397

> <Canonical_QSARr>
CC(=O)CC(=O)Nc1ccccc1

> <InChI_Code_QSARr>
InChI=1S/C10H11NO2/c1-8(12)7-10(13)11-9-5-3-2-4-6-9/h2-6H,7H2,1H3,(H,11,13)

> <InChI Key_QSARr>
DYRDKSSFIWVSNM-UHFFFAOYSA-N

> <Salt_Solvent>
?

> <LogVP>
-4.2798

$$$$
100539
  -INDIGO-08031723152D

 31 30  0  0  0  0  0  0  0  0999 V2000
   -0.9478   -4.2041    0.0000 C   0  0  0  0  0  0  0  0  0  0  0  0
   -0.6700   -5.7798    0.0000 H   0  0  0  0  0  0  0  0  0  0  0  0
   -2.1735   -5.2326    0.0000 H   0  0  0  0  0  0  0  0  0  0  0  0
    0.5556   -4.7515    0.0000 H   0  0  0  0  0  0  0  0  0  0  0  0
   -1.2257   -2.6285    0.0000 C   0  0  0  0  0  0  0  0  0  0  0  0
   -2.4053   -1.5475    0.0000 H   0  0  0  0  0  0  0  0  0  0  0  0
   -2.8242   -2.6983    0.0000 H   0  0  0  0  0  0  0  0  0  0  0  0
    0.0000   -1.5999    0.0000 C   0  0  0  0  0  0  0  0  0  0  0  0
    0.9740   -2.8694    0.0000 H   0  0  0  0  0  0  0  0  0  0  0  0
    1.5863   -1.8088    0.0000 H   0  0  0  0  0  0  0  0  0  0  0  0
    0.0000    0.0000    0.0000 N   0  0  0  0  0  0  0  0  0  0  0  0
   -1.3856    0.8000    0.0000 C   0  0  0  0  0  0  0  0  0  0  0  0
   -2.9719    0.5911    0.0000 H   0  0  0  0  0  0  0  0  0  0  0  0
   -2.3596   -0.4694    0.0000 H   0  0  0  0  0  0  0  0  0  0  0  0
   -1.6635    2.3756    0.0000 C   0  0  0  0  0  0  0  0  0  0  0  0
   -0.1375    2.8568    0.0000 H   0  0  0  0  0  0  0  0  0  0  0  0
   -0.9247    3.7949    0.0000 H   0  0  0  0  0  0  0  0  0  0  0  0
   -3.1669    2.9229    0.0000 C   0  0  0  0  0  0  0  0  0  0  0  0
   -4.6705    3.4702    0.0000 H   0  0  0  0  0  0  0  0  0  0  0  0
   -3.4448    4.4986    0.0000 H   0  0  0  0  0  0  0  0  0  0  0  0
   -4.3926    1.8945    0.0000 H   0  0  0  0  0  0  0  0  0  0  0  0
    1.3857    0.8000    0.0000 C   0  0  0  0  0  0  0  0  0  0  0  0
    1.9980    2.2782    0.0000 H   0  0  0  0  0  0  0  0  0  0  0  0
    0.7734    2.2782    0.0000 H   0  0  0  0  0  0  0  0  0  0  0  0
    2.8891    0.2528    0.0000 C   0  0  0  0  0  0  0  0  0  0  0  0
    2.5429   -1.3093    0.0000 H   0  0  0  0  0  0  0  0  0  0  0  0
    3.7488   -1.0966    0.0000 H   0  0  0  0  0  0  0  0  0  0  0  0
    4.1148    1.2812    0.0000 C   0  0  0  0  0  0  0  0  0  0  0  0
    5.3404    2.3096    0.0000 H   0  0  0  0  0  0  0  0  0  0  0  0
    5.6183    0.7340    0.0000 H   0  0  0  0  0  0  0  0  0  0  0  0
    3.8370    2.8570    0.0000 H   0  0  0  0  0  0  0  0  0  0  0  0
  1  2  1  0  0  0  0
  1  3  1  0  0  0  0
  1  4  1  0  0  0  0
  1  5  1  0  0  0  0
  5  6  1  0  0  0  0
  5  7  1  0  0  0  0
  5  8  1  0  0  0  0
  8  9  1  0  0  0  0
  8 10  1  0  0  0  0
  8 11  1  0  0  0  0
 11 12  1  0  0  0  0
 12 13  1  0  0  0  0
 12 14  1  0  0  0  0
 12 15  1  0  0  0  0
 15 16  1  0  0  0  0
 15 17  1  0  0  0  0
 15 18  1  0  0  0  0
 18 19  1  0  0  0  0
 18 20  1  0  0  0  0
 18 21  1  0  0  0  0
 11 22  1  0  0  0  0
 22 23  1  0  0  0  0
 22 24  1  0  0  0  0
 22 25  1  0  0  0  0
 25 26  1  0  0  0  0
 25 27  1  0  0  0  0
 25 28  1  0  0  0  0
 28 29  1  0  0  0  0
 28 30  1  0  0  0  0
 28 31  1  0  0  0  0
M  END
> <ChemID>
100539

> <source_casrn>
102-69-2

> <CAS>
102-69-2

> <SMILES>
CCCN(CCC)CCC

> <NAME>
TRIPROPYLAMINE

> <preferred_name>
Tripropylamine

> <iupac>
N,N-dipropylpropan-1-amine

> <MPID>
25174

> <dsstox_substance_id>
DTXSID9021849

> <Canonical_QSARr>
CCCN(CCC)CCC

> <InChI_Code_QSARr>
InChI=1S/C9H21N/c1-4-7-10(8-5-2)9-6-3/h4-9H2,1-3H3

> <InChI Key_QSARr>
YFTHZRPMJXBUME-UHFFFAOYSA-N

> <Salt_Solvent>
?

> <LogVP>
0.179

$$$$
100543
  -INDIGO-08031723152D

 28 30  0  0  0  0  0  0  0  0999 V2000
    4.3242   -2.3912    0.0000 N   0  0  0  0  0  0  0  0  0  0  0  0
    4.1569   -0.8000    0.0000 C   0  0  0  0  0  0  0  0  0  0  0  0
    2.7713   -0.0000    0.0000 S   0  0  0  0  0  0  0  0  0  0  0  0
    1.3856   -0.8000    0.0000 N   0  0  0  0  0  0  0  0  0  0  0  0
    1.3856   -2.4000    0.0000 C   0  0  0  0  0  0  0  0  0  0  0  0
    2.9613   -2.1222    0.0000 H   0  0  0  0  0  0  0  0  0  0  0  0
    1.9329   -3.9035    0.0000 H   0  0  0  0  0  0  0  0  0  0  0  0
   -0.0000   -3.2000    0.0000 C   0  0  0  0  0  0  0  0  0  0  0  0
    1.0285   -4.4256    0.0000 H   0  0  0  0  0  0  0  0  0  0  0  0
   -1.0284   -4.4256    0.0000 H   0  0  0  0  0  0  0  0  0  0  0  0
   -1.3856   -2.4000    0.0000 O   0  0  0  0  0  0  0  0  0  0  0  0
   -1.3856   -0.8000    0.0000 C   0  0  0  0  0  0  0  0  0  0  0  0
   -2.9613   -1.0779    0.0000 H   0  0  0  0  0  0  0  0  0  0  0  0
   -1.9328    0.7035    0.0000 H   0  0  0  0  0  0  0  0  0  0  0  0
   -0.0000   -0.0000    0.0000 C   0  0  0  0  0  0  0  0  0  0  0  0
   -1.0284    1.2257    0.0000 H   0  0  0  0  0  0  0  0  0  0  0  0
    1.0285    1.2257    0.0000 H   0  0  0  0  0  0  0  0  0  0  0  0
    5.6185   -0.1493    0.0000 S   0  0  0  0  0  0  0  0  0  0  0  0
    6.6891   -1.3383    0.0000 C   0  0  0  0  0  0  0  0  0  0  0  0
    5.8893   -2.7239    0.0000 C   0  0  0  0  0  0  0  0  0  0  0  0
    6.6891   -4.1096    0.0000 C   0  0  0  0  0  0  0  0  0  0  0  0
    5.8893   -5.4952    0.0000 H   0  0  0  0  0  0  0  0  0  0  0  0
    8.2892   -4.1096    0.0000 C   0  0  0  0  0  0  0  0  0  0  0  0
    9.0893   -5.4952    0.0000 H   0  0  0  0  0  0  0  0  0  0  0  0
    9.0893   -2.7239    0.0000 C   0  0  0  0  0  0  0  0  0  0  0  0
   10.6892   -2.7239    0.0000 H   0  0  0  0  0  0  0  0  0  0  0  0
    8.2892   -1.3383    0.0000 C   0  0  0  0  0  0  0  0  0  0  0  0
    9.0893    0.0474    0.0000 H   0  0  0  0  0  0  0  0  0  0  0  0
  1  2  2  0  0  0  0
  2  3  1  0  0  0  0
  3  4  1  0  0  0  0
  4  5  1  0  0  0  0
  5  6  1  0  0  0  0
  5  7  1  0  0  0  0
  5  8  1  0  0  0  0
  8  9  1  0  0  0  0
  8 10  1  0  0  0  0
  8 11  1  0  0  0  0
 11 12  1  0  0  0  0
 12 13  1  0  0  0  0
 12 14  1  0  0  0  0
 12 15  1  0  0  0  0
 15  4  1  0  0  0  0
 15 16  1  0  0  0  0
 15 17  1  0  0  0  0
  2 18  1  0  0  0  0
 18 19  1  0  0  0  0
 19 20  1  0  0  0  0
 20  1  1  0  0  0  0
 20 21  2  0  0  0  0
 21 22  1  0  0  0  0
 21 23  1  0  0  0  0
 23 24  1  0  0  0  0
 23 25  2  0  0  0  0
 25 26  1  0  0  0  0
 25 27  1  0  0  0  0
 27 19  2  0  0  0  0
 27 28  1  0  0  0  0
M  END
> <ChemID>
100543

> <source_casrn>
102-77-2

> <CAS>
102-77-2

> <SMILES>
C1COCCN1Sc1[n]c2ccccc2[s]1

> <NAME>
Morpholine, 4-(2-benzothiazolylthio)-

> <preferred_name>
N-Oxydiethylenebenzothiazole-2-sulfenamide

> <iupac>
2-(morpholin-4-ylsulfanyl)-1,3-benzothiazole

> <MPID>
25178

> <dsstox_substance_id>
DTXSID0021096

> <Canonical_QSARr>
C1COCCN1Sc1[n]c2ccccc2[s]1

> <InChI_Code_QSARr>
InChI=1S/C11H12N2OS2/c1-2-4-10-9(3-1)12-11(15-10)16-13-5-7-14-8-6-13/h1-4H,5-8H2

> <InChI Key_QSARr>
MHKLKWCYGIBEQF-UHFFFAOYSA-N

> <Salt_Solvent>
?

> <LogVP>
-5.4763

$$$$
100547
  -INDIGO-08031723152D

 33 32  0  0  0  0  0  0  0  0999 V2000
   -2.3999    4.1569    0.0000 O   0  0  0  0  0  0  0  0  0  0  0  0
   -3.2000    2.7713    0.0000 C   0  0  0  0  0  0  0  0  0  0  0  0
   -2.3999    1.3857    0.0000 O   0  0  0  0  0  0  0  0  0  0  0  0
   -0.8000    1.3857    0.0000 C   0  0  0  0  0  0  0  0  0  0  0  0
   -0.5911    2.9720    0.0000 H   0  0  0  0  0  0  0  0  0  0  0  0
    0.4693    2.3596    0.0000 H   0  0  0  0  0  0  0  0  0  0  0  0
   -0.0001    0.0000    0.0000 C   0  0  0  0  0  0  0  0  0  0  0  0
    0.8000   -1.3856    0.0000 H   0  0  0  0  0  0  0  0  0  0  0  0
    1.5035    0.5472    0.0000 C   0  0  0  0  0  0  0  0  0  0  0  0
    1.7124   -1.0390    0.0000 H   0  0  0  0  0  0  0  0  0  0  0  0
    2.7729   -0.4268    0.0000 H   0  0  0  0  0  0  0  0  0  0  0  0
    2.5320    1.7729    0.0000 C   0  0  0  0  0  0  0  0  0  0  0  0
    2.6018    3.3714    0.0000 H   0  0  0  0  0  0  0  0  0  0  0  0
    1.4511    2.9526    0.0000 H   0  0  0  0  0  0  0  0  0  0  0  0
    4.1078    1.4950    0.0000 C   0  0  0  0  0  0  0  0  0  0  0  0
    4.0379   -0.1034    0.0000 H   0  0  0  0  0  0  0  0  0  0  0  0
    5.1887    0.3154    0.0000 H   0  0  0  0  0  0  0  0  0  0  0  0
    5.1361    2.7207    0.0000 C   0  0  0  0  0  0  0  0  0  0  0  0
    6.1646    3.9464    0.0000 H   0  0  0  0  0  0  0  0  0  0  0  0
    6.7118    2.4428    0.0000 H   0  0  0  0  0  0  0  0  0  0  0  0
    4.5888    4.2243    0.0000 H   0  0  0  0  0  0  0  0  0  0  0  0
   -1.2256   -1.0285    0.0000 C   0  0  0  0  0  0  0  0  0  0  0  0
   -2.8240   -1.0982    0.0000 H   0  0  0  0  0  0  0  0  0  0  0  0
   -2.4052    0.0526    0.0000 H   0  0  0  0  0  0  0  0  0  0  0  0
   -0.9479   -2.6042    0.0000 C   0  0  0  0  0  0  0  0  0  0  0  0
   -0.6700   -4.1798    0.0000 H   0  0  0  0  0  0  0  0  0  0  0  0
   -2.1734   -3.6326    0.0000 H   0  0  0  0  0  0  0  0  0  0  0  0
    0.5557   -3.1515    0.0000 H   0  0  0  0  0  0  0  0  0  0  0  0
   -4.8000    2.7713    0.0000 C   0  0  0  0  0  0  0  0  0  0  0  0
   -5.6000    1.3857    0.0000 H   0  0  0  0  0  0  0  0  0  0  0  0
   -5.6000    4.1569    0.0000 C   0  0  0  0  0  0  0  0  0  0  0  0
   -7.2000    4.1569    0.0000 H   0  0  0  0  0  0  0  0  0  0  0  0
   -4.8000    5.5426    0.0000 H   0  0  0  0  0  0  0  0  0  0  0  0
  1  2  2  0  0  0  0
  2  3  1  0  0  0  0
  3  4  1  0  0  0  0
  4  5  1  0  0  0  0
  4  6  1  0  0  0  0
  4  7  1  0  0  0  0
  7  8  1  0  0  0  0
  7  9  1  0  0  0  0
  9 10  1  0  0  0  0
  9 11  1  0  0  0  0
  9 12  1  0  0  0  0
 12 13  1  0  0  0  0
 12 14  1  0  0  0  0
 12 15  1  0  0  0  0
 15 16  1  0  0  0  0
 15 17  1  0  0  0  0
 15 18  1  0  0  0  0
 18 19  1  0  0  0  0
 18 20  1  0  0  0  0
 18 21  1  0  0  0  0
  7 22  1  0  0  0  0
 22 23  1  0  0  0  0
 22 24  1  0  0  0  0
 22 25  1  0  0  0  0
 25 26  1  0  0  0  0
 25 27  1  0  0  0  0
 25 28  1  0  0  0  0
  2 29  1  0  0  0  0
 29 30  1  0  0  0  0
 29 31  2  0  0  0  0
 31 32  1  0  0  0  0
 31 33  1  0  0  0  0
M  END
> <ChemID>
100547

> <source_casrn>
103-11-7

> <CAS>
103-11-7

> <SMILES>
CCCCC(COC(=O)C=C)CC

> <NAME>
2-ETHYLHEXYL ACRYLATE

> <preferred_name>
2-Ethylhexyl acrylate

> <iupac>
2-ethylhexyl prop-2-enoate

> <MPID>
25182

> <dsstox_substance_id>
DTXSID9025297

> <Canonical_QSARr>
CCCCC(COC(=O)C=C)CC

> <InChI_Code_QSARr>
InChI=1S/C11H20O2/c1-4-7-8-10(5-2)9-13-11(12)6-3/h6,10H,3-5,7-9H2,1-2H3

> <InChI Key_QSARr>
GOXQRTZXKQZDDN-UHFFFAOYSA-N

> <Salt_Solvent>
?

> <LogVP>
-0.7496

$$$$
100551
  -INDIGO-08031723152D

 26 27  0  0  0  0  0  0  0  0999 V2000
    0.0000    0.0000    0.0000 C   0  0  0  0  0  0  0  0  0  0  0  0
    0.8000   -1.3856    0.0000 C   0  0  0  0  0  0  0  0  0  0  0  0
    0.0000   -2.7713    0.0000 H   0  0  0  0  0  0  0  0  0  0  0  0
    2.4000   -1.3856    0.0000 C   0  0  0  0  0  0  0  0  0  0  0  0
    3.2000   -2.7713    0.0000 H   0  0  0  0  0  0  0  0  0  0  0  0
    3.2000    0.0000    0.0000 C   0  0  0  0  0  0  0  0  0  0  0  0
    4.8000    0.0000    0.0000 H   0  0  0  0  0  0  0  0  0  0  0  0
    2.4000    1.3856    0.0000 C   0  0  0  0  0  0  0  0  0  0  0  0
    3.2000    2.7713    0.0000 H   0  0  0  0  0  0  0  0  0  0  0  0
    0.8000    1.3856    0.0000 C   0  0  0  0  0  0  0  0  0  0  0  0
    0.0000    2.7713    0.0000 H   0  0  0  0  0  0  0  0  0  0  0  0
   -1.6000    0.0000    0.0000 C   0  0  0  0  0  0  0  0  0  0  0  0
   -2.4000   -1.3856    0.0000 H   0  0  0  0  0  0  0  0  0  0  0  0
   -2.4000    1.3856    0.0000 C   0  0  0  0  0  0  0  0  0  0  0  0
   -1.6000    2.7713    0.0000 H   0  0  0  0  0  0  0  0  0  0  0  0
   -4.0000    1.3856    0.0000 C   0  0  0  0  0  0  0  0  0  0  0  0
   -4.8000    2.7713    0.0000 C   0  0  0  0  0  0  0  0  0  0  0  0
   -4.0000    4.1569    0.0000 H   0  0  0  0  0  0  0  0  0  0  0  0
   -6.4000    2.7713    0.0000 C   0  0  0  0  0  0  0  0  0  0  0  0
   -7.2000    4.1569    0.0000 H   0  0  0  0  0  0  0  0  0  0  0  0
   -7.2000    1.3856    0.0000 C   0  0  0  0  0  0  0  0  0  0  0  0
   -8.8000    1.3856    0.0000 H   0  0  0  0  0  0  0  0  0  0  0  0
   -6.4000    0.0000    0.0000 C   0  0  0  0  0  0  0  0  0  0  0  0
   -7.2000   -1.3856    0.0000 H   0  0  0  0  0  0  0  0  0  0  0  0
   -4.8000    0.0000    0.0000 C   0  0  0  0  0  0  0  0  0  0  0  0
   -4.0000   -1.3856    0.0000 H   0  0  0  0  0  0  0  0  0  0  0  0
  1  2  1  0  0  0  0
  2  3  1  0  0  0  0
  2  4  2  0  0  0  0
  4  5  1  0  0  0  0
  4  6  1  0  0  0  0
  6  7  1  0  0  0  0
  6  8  2  0  0  0  0
  8  9  1  0  0  0  0
  8 10  1  0  0  0  0
 10  1  2  0  0  0  0
 10 11  1  0  0  0  0
  1 12  1  0  0  0  0
 12 13  1  0  0  0  0
 12 14  2  0  0  0  0
 14 15  1  0  0  0  0
 14 16  1  0  0  0  0
 16 17  1  0  0  0  0
 17 18  1  0  0  0  0
 17 19  2  0  0  0  0
 19 20  1  0  0  0  0
 19 21  1  0  0  0  0
 21 22  1  0  0  0  0
 21 23  2  0  0  0  0
 23 24  1  0  0  0  0
 23 25  1  0  0  0  0
 25 16  2  0  0  0  0
 25 26  1  0  0  0  0
M  END
> <ChemID>
100551

> <source_casrn>
103-30-0|645-49-8

> <CAS>
103-30-0|645-49-8

> <SMILES>
c1ccccc1/C=C/c1ccccc1

> <NAME>
STILBENE (TRANS), 1,1'-(1,2-ETHENEDIYL)BISBENZENE (CIS)

> <preferred_name>
trans-Stilbene

> <iupac>
1,1'-(E)-ethene-1,2-diyldibenzene

> <MPID>
25186|26350

> <dsstox_substance_id>
DTXSID4026050|DTXSID5026049

> <Canonical_QSARr>
c1ccccc1C=Cc1ccccc1

> <InChI_Code_QSARr>
InChI=1S/C14H12/c1-3-7-13(8-4-1)11-12-14-9-5-2-6-10-14/h1-12H/b12-11+

> <InChI Key_QSARr>
PJANXHGTPQOBST-VAWYXSNFSA-N

> <Salt_Solvent>
?

> <LogVP>
-2.60935

$$$$
100555
  -INDIGO-08031723152D

 24 24  0  0  0  0  0  0  0  0999 V2000
   -1.3856   -0.8000    0.0000 C   0  0  0  0  0  0  0  0  0  0  0  0
    0.0001   -0.0000    0.0000 C   0  0  0  0  0  0  0  0  0  0  0  0
    0.6122    1.4782    0.0000 H   0  0  0  0  0  0  0  0  0  0  0  0
   -0.6123    1.4782    0.0000 H   0  0  0  0  0  0  0  0  0  0  0  0
    1.3856   -0.8000    0.0000 C   0  0  0  0  0  0  0  0  0  0  0  0
    0.7734   -2.2782    0.0000 H   0  0  0  0  0  0  0  0  0  0  0  0
    1.9979   -2.2782    0.0000 H   0  0  0  0  0  0  0  0  0  0  0  0
    2.7713   -0.0000    0.0000 O   0  0  0  0  0  0  0  0  0  0  0  0
    4.1570   -0.8000    0.0000 C   0  0  0  0  0  0  0  0  0  0  0  0
    4.1570   -2.4000    0.0000 O   0  0  0  0  0  0  0  0  0  0  0  0
    5.5425   -0.0000    0.0000 C   0  0  0  0  0  0  0  0  0  0  0  0
    6.9282    0.8000    0.0000 H   0  0  0  0  0  0  0  0  0  0  0  0
    6.9282   -0.8000    0.0000 H   0  0  0  0  0  0  0  0  0  0  0  0
    5.5425    1.6000    0.0000 H   0  0  0  0  0  0  0  0  0  0  0  0
   -1.3856   -2.4000    0.0000 C   0  0  0  0  0  0  0  0  0  0  0  0
    0.0001   -3.2000    0.0000 H   0  0  0  0  0  0  0  0  0  0  0  0
   -2.7713   -3.2000    0.0000 C   0  0  0  0  0  0  0  0  0  0  0  0
   -2.7713   -4.8000    0.0000 H   0  0  0  0  0  0  0  0  0  0  0  0
   -4.1569   -2.4000    0.0000 C   0  0  0  0  0  0  0  0  0  0  0  0
   -5.5426   -3.2000    0.0000 H   0  0  0  0  0  0  0  0  0  0  0  0
   -4.1569   -0.8000    0.0000 C   0  0  0  0  0  0  0  0  0  0  0  0
   -5.5426   -0.0000    0.0000 H   0  0  0  0  0  0  0  0  0  0  0  0
   -2.7713   -0.0000    0.0000 C   0  0  0  0  0  0  0  0  0  0  0  0
   -2.7713    1.6000    0.0000 H   0  0  0  0  0  0  0  0  0  0  0  0
  1  2  1  0  0  0  0
  2  3  1  0  0  0  0
  2  4  1  0  0  0  0
  2  5  1  0  0  0  0
  5  6  1  0  0  0  0
  5  7  1  0  0  0  0
  5  8  1  0  0  0  0
  8  9  1  0  0  0  0
  9 10  2  0  0  0  0
  9 11  1  0  0  0  0
 11 12  1  0  0  0  0
 11 13  1  0  0  0  0
 11 14  1  0  0  0  0
  1 15  1  0  0  0  0
 15 16  1  0  0  0  0
 15 17  2  0  0  0  0
 17 18  1  0  0  0  0
 17 19  1  0  0  0  0
 19 20  1  0  0  0  0
 19 21  2  0  0  0  0
 21 22  1  0  0  0  0
 21 23  1  0  0  0  0
 23  1  2  0  0  0  0
 23 24  1  0  0  0  0
M  END
> <ChemID>
100555

> <source_casrn>
103-45-7

> <CAS>
103-45-7

> <SMILES>
CC(=O)OCCc1ccccc1

> <NAME>
B-PHENYLETHYL ACETATE

> <preferred_name>
2-Phenylethyl acetate

> <iupac>
2-phenylethyl acetate

> <MPID>
25190

> <dsstox_substance_id>
DTXSID7044506

> <Canonical_QSARr>
CC(=O)OCCc1ccccc1

> <InChI_Code_QSARr>
InChI=1S/C10H12O2/c1-9(11)12-8-7-10-5-3-2-4-6-10/h2-6H,7-8H2,1H3

> <InChI Key_QSARr>
MDHYEMXUFSJLGV-UHFFFAOYSA-N

> <Salt_Solvent>
?

> <LogVP>
-1.5031

$$$$
100559
  -INDIGO-08031723152D

 21 21  0  0  0  0  0  0  0  0999 V2000
   -1.3857   -0.8000    0.0000 C   0  0  0  0  0  0  0  0  0  0  0  0
   -1.3857   -2.4000    0.0000 C   0  0  0  0  0  0  0  0  0  0  0  0
    0.0001   -3.2000    0.0000 H   0  0  0  0  0  0  0  0  0  0  0  0
   -2.7713   -3.2000    0.0000 C   0  0  0  0  0  0  0  0  0  0  0  0
   -2.7713   -4.8000    0.0000 H   0  0  0  0  0  0  0  0  0  0  0  0
   -4.1569   -2.4000    0.0000 C   0  0  0  0  0  0  0  0  0  0  0  0
   -5.5426   -3.2000    0.0000 H   0  0  0  0  0  0  0  0  0  0  0  0
   -4.1569   -0.8000    0.0000 C   0  0  0  0  0  0  0  0  0  0  0  0
   -5.5426   -0.0000    0.0000 H   0  0  0  0  0  0  0  0  0  0  0  0
   -2.7713   -0.0000    0.0000 C   0  0  0  0  0  0  0  0  0  0  0  0
   -2.7713    1.6000    0.0000 H   0  0  0  0  0  0  0  0  0  0  0  0
    0.0001   -0.0000    0.0000 C   0  0  0  0  0  0  0  0  0  0  0  0
    0.6124    1.4782    0.0000 H   0  0  0  0  0  0  0  0  0  0  0  0
   -0.6122    1.4782    0.0000 H   0  0  0  0  0  0  0  0  0  0  0  0
    1.3857   -0.8000    0.0000 C   0  0  0  0  0  0  0  0  0  0  0  0
    0.7734   -2.2782    0.0000 H   0  0  0  0  0  0  0  0  0  0  0  0
    1.9980   -2.2782    0.0000 H   0  0  0  0  0  0  0  0  0  0  0  0
    2.7713   -0.0000    0.0000 C   0  0  0  0  0  0  0  0  0  0  0  0
    4.1569    0.8000    0.0000 H   0  0  0  0  0  0  0  0  0  0  0  0
    4.1569   -0.8000    0.0000 H   0  0  0  0  0  0  0  0  0  0  0  0
    2.7713    1.6000    0.0000 H   0  0  0  0  0  0  0  0  0  0  0  0
  1  2  1  0  0  0  0
  2  3  1  0  0  0  0
  2  4  2  0  0  0  0
  4  5  1  0  0  0  0
  4  6  1  0  0  0  0
  6  7  1  0  0  0  0
  6  8  2  0  0  0  0
  8  9  1  0  0  0  0
  8 10  1  0  0  0  0
 10  1  2  0  0  0  0
 10 11  1  0  0  0  0
  1 12  1  0  0  0  0
 12 13  1  0  0  0  0
 12 14  1  0  0  0  0
 12 15  1  0  0  0  0
 15 16  1  0  0  0  0
 15 17  1  0  0  0  0
 15 18  1  0  0  0  0
 18 19  1  0  0  0  0
 18 20  1  0  0  0  0
 18 21  1  0  0  0  0
M  END
> <ChemID>
100559

> <source_casrn>
103-65-1

> <CAS>
103-65-1

> <SMILES>
CCCc1ccccc1

> <NAME>
N-PROPYLBENZENE

> <preferred_name>
Propylbenzene

> <iupac>
propylbenzene

> <MPID>
25194

> <dsstox_substance_id>
DTXSID3042219

> <Canonical_QSARr>
CCCc1ccccc1

> <InChI_Code_QSARr>
InChI=1S/C9H12/c1-2-6-9-7-4-3-5-8-9/h3-5,7-8H,2,6H2,1H3

> <InChI Key_QSARr>
ODLMAHJVESYWTB-UHFFFAOYSA-N

> <Salt_Solvent>
?

> <LogVP>
0.534

$$$$
100564
  -INDIGO-08031723152D

 19 19  0  0  0  0  0  0  0  0999 V2000
   -2.7713   -0.0000    0.0000 C   0  0  0  0  0  0  0  0  0  0  0  0
   -2.7713   -1.6000    0.0000 C   0  0  0  0  0  0  0  0  0  0  0  0
   -1.3856   -2.4000    0.0000 H   0  0  0  0  0  0  0  0  0  0  0  0
   -4.1570   -2.4000    0.0000 C   0  0  0  0  0  0  0  0  0  0  0  0
   -4.1570   -4.0000    0.0000 H   0  0  0  0  0  0  0  0  0  0  0  0
   -5.5426   -1.6000    0.0000 C   0  0  0  0  0  0  0  0  0  0  0  0
   -6.9282   -2.4000    0.0000 H   0  0  0  0  0  0  0  0  0  0  0  0
   -5.5426   -0.0000    0.0000 C   0  0  0  0  0  0  0  0  0  0  0  0
   -6.9282    0.8000    0.0000 H   0  0  0  0  0  0  0  0  0  0  0  0
   -4.1570    0.8000    0.0000 C   0  0  0  0  0  0  0  0  0  0  0  0
   -4.1570    2.4000    0.0000 H   0  0  0  0  0  0  0  0  0  0  0  0
   -1.3856    0.8000    0.0000 O   0  0  0  0  0  0  0  0  0  0  0  0
    0.0000   -0.0000    0.0000 C   0  0  0  0  0  0  0  0  0  0  0  0
   -0.6123   -1.4782    0.0000 H   0  0  0  0  0  0  0  0  0  0  0  0
    0.6123   -1.4782    0.0000 H   0  0  0  0  0  0  0  0  0  0  0  0
    1.3857    0.8000    0.0000 C   0  0  0  0  0  0  0  0  0  0  0  0
    2.7713    1.6000    0.0000 H   0  0  0  0  0  0  0  0  0  0  0  0
    2.7713   -0.0000    0.0000 H   0  0  0  0  0  0  0  0  0  0  0  0
    1.3857    2.4000    0.0000 H   0  0  0  0  0  0  0  0  0  0  0  0
  1  2  1  0  0  0  0
  2  3  1  0  0  0  0
  2  4  2  0  0  0  0
  4  5  1  0  0  0  0
  4  6  1  0  0  0  0
  6  7  1  0  0  0  0
  6  8  2  0  0  0  0
  8  9  1  0  0  0  0
  8 10  1  0  0  0  0
 10  1  2  0  0  0  0
 10 11  1  0  0  0  0
  1 12  1  0  0  0  0
 12 13  1  0  0  0  0
 13 14  1  0  0  0  0
 13 15  1  0  0  0  0
 13 16  1  0  0  0  0
 16 17  1  0  0  0  0
 16 18  1  0  0  0  0
 16 19  1  0  0  0  0
M  END
> <ChemID>
100564

> <source_casrn>
103-73-1

> <CAS>
103-73-1

> <SMILES>
CCOc1ccccc1

> <NAME>
ETHOXYBENZENE

> <preferred_name>
Benzene, ethoxy-

> <iupac>
Ethoxybenzene

> <MPID>
25198

> <dsstox_substance_id>
DTXSID7059278

> <Canonical_QSARr>
CCOc1ccccc1

> <InChI_Code_QSARr>
InChI=1S/C8H10O/c1-2-9-8-6-4-3-5-7-8/h3-7H,2H2,1H3

> <InChI Key_QSARr>
DLRJIFUOBPOJNS-UHFFFAOYSA-N

> <Salt_Solvent>
?

> <LogVP>
0.1847

$$$$
100568
  -INDIGO-08031723152D

 14 14  0  0  0  0  0  0  0  0999 V2000
   -2.4000    1.3856    0.0000 C   0  0  0  0  0  0  0  0  0  0  0  0
   -0.8000    1.3856    0.0000 N   0  0  0  0  0  0  0  0  0  0  0  0
   -0.0001   -0.0000    0.0000 C   0  0  0  0  0  0  0  0  0  0  0  0
   -0.8000   -1.3857    0.0000 C   0  0  0  0  0  0  0  0  0  0  0  0
   -2.4000   -1.3857    0.0000 H   0  0  0  0  0  0  0  0  0  0  0  0
   -0.0001   -2.7713    0.0000 C   0  0  0  0  0  0  0  0  0  0  0  0
   -0.8000   -4.1569    0.0000 H   0  0  0  0  0  0  0  0  0  0  0  0
    1.6001   -2.7713    0.0000 C   0  0  0  0  0  0  0  0  0  0  0  0
    2.4000   -4.1569    0.0000 Cl  0  0  0  0  0  0  0  0  0  0  0  0
    2.4000   -1.3856    0.0000 C   0  0  0  0  0  0  0  0  0  0  0  0
    4.0000   -1.3856    0.0000 H   0  0  0  0  0  0  0  0  0  0  0  0
    1.6001   -0.0000    0.0000 C   0  0  0  0  0  0  0  0  0  0  0  0
    2.4000    1.3856    0.0000 H   0  0  0  0  0  0  0  0  0  0  0  0
   -4.0000    1.3856    0.0000 O   0  0  0  0  0  0  0  0  0  0  0  0
  1  2  2  0  0  0  0
  2  3  1  0  0  0  0
  3  4  1  0  0  0  0
  4  5  1  0  0  0  0
  4  6  2  0  0  0  0
  6  7  1  0  0  0  0
  6  8  1  0  0  0  0
  8  9  1  0  0  0  0
  8 10  2  0  0  0  0
 10 11  1  0  0  0  0
 10 12  1  0  0  0  0
 12  3  2  0  0  0  0
 12 13  1  0  0  0  0
  1 14  2  0  0  0  0
M  END
> <ChemID>
100568

> <source_casrn>
104-12-1

> <CAS>
104-12-1

> <SMILES>
O=C=Nc1ccc(Cl)cc1

> <NAME>
1-CHLORO-4-ISOCYANATOBENZENE

> <preferred_name>
4-Chlorophenyl isocyanate

> <iupac>
1-chloro-4-isocyanatobenzene

> <MPID>
25202

> <dsstox_substance_id>
DTXSID7040732

> <Canonical_QSARr>
O=C=Nc1ccc(Cl)cc1

> <InChI_Code_QSARr>
InChI=1S/C7H4ClNO/c8-6-1-3-7(4-2-6)9-5-10/h1-4H

> <InChI Key_QSARr>
ADAKRBAJFHTIEW-UHFFFAOYSA-N

> <Salt_Solvent>
?

> <LogVP>
-0.712

$$$$
100572
  -INDIGO-08031723152D

 20 20  0  0  0  0  0  0  0  0999 V2000
    4.0000   -1.3856    0.0000 C   0  0  0  0  0  0  0  0  0  0  0  0
    4.2089    0.2007    0.0000 H   0  0  0  0  0  0  0  0  0  0  0  0
    5.2693   -0.4117    0.0000 H   0  0  0  0  0  0  0  0  0  0  0  0
    2.4001   -1.3856    0.0000 C   0  0  0  0  0  0  0  0  0  0  0  0
    1.6001   -2.7713    0.0000 H   0  0  0  0  0  0  0  0  0  0  0  0
    1.6001   -0.0000    0.0000 C   0  0  0  0  0  0  0  0  0  0  0  0
    2.4001    1.3856    0.0000 H   0  0  0  0  0  0  0  0  0  0  0  0
   -0.0001    0.0000    0.0000 C   0  0  0  0  0  0  0  0  0  0  0  0
   -0.8001    1.3856    0.0000 C   0  0  0  0  0  0  0  0  0  0  0  0
   -0.0001    2.7713    0.0000 H   0  0  0  0  0  0  0  0  0  0  0  0
   -2.4000    1.3856    0.0000 C   0  0  0  0  0  0  0  0  0  0  0  0
   -3.2000    2.7713    0.0000 H   0  0  0  0  0  0  0  0  0  0  0  0
   -3.2000    0.0000    0.0000 C   0  0  0  0  0  0  0  0  0  0  0  0
   -4.8000   -0.0000    0.0000 H   0  0  0  0  0  0  0  0  0  0  0  0
   -2.4000   -1.3856    0.0000 C   0  0  0  0  0  0  0  0  0  0  0  0
   -3.2000   -2.7713    0.0000 H   0  0  0  0  0  0  0  0  0  0  0  0
   -0.8001   -1.3856    0.0000 C   0  0  0  0  0  0  0  0  0  0  0  0
   -0.0001   -2.7713    0.0000 H   0  0  0  0  0  0  0  0  0  0  0  0
    4.8000   -2.7713    0.0000 O   0  0  0  0  0  0  0  0  0  0  0  0
    6.4000   -2.7713    0.0000 H   0  0  0  0  0  0  0  0  0  0  0  0
  1  2  1  0  0  0  0
  1  3  1  0  0  0  0
  1  4  1  0  0  0  0
  4  5  1  0  0  0  0
  4  6  2  0  0  0  0
  6  7  1  0  0  0  0
  6  8  1  0  0  0  0
  8  9  1  0  0  0  0
  9 10  1  0  0  0  0
  9 11  2  0  0  0  0
 11 12  1  0  0  0  0
 11 13  1  0  0  0  0
 13 14  1  0  0  0  0
 13 15  2  0  0  0  0
 15 16  1  0  0  0  0
 15 17  1  0  0  0  0
 17  8  2  0  0  0  0
 17 18  1  0  0  0  0
  1 19  1  0  0  0  0
 19 20  1  0  0  0  0
M  END
> <ChemID>
100572

> <source_casrn>
104-54-1

> <CAS>
104-54-1

> <SMILES>
OCC=Cc1ccccc1

> <NAME>
CINNAMYL ALCOHOL

> <preferred_name>
3-Phenyl-2-propen-1-ol

> <iupac>
3-phenylprop-2-en-1-ol

> <MPID>
25206

> <dsstox_substance_id>
DTXSID9041491

> <Canonical_QSARr>
OCC=Cc1ccccc1

> <InChI_Code_QSARr>
InChI=1S/C9H10O/c10-8-4-7-9-5-2-1-3-6-9/h1-7,10H,8H2/b7-4+

> <InChI Key_QSARr>
OOCCDEMITAIZTP-QPJJXVBHSA-N

> <Salt_Solvent>
?

> <LogVP>
-1.6198

$$$$
100576
  -INDIGO-08031723152D

 27 26  0  0  0  0  0  0  0  0999 V2000
    5.8084   -0.2118    0.0000 C   0  0  0  0  0  0  0  0  0  0  0  0
    7.3119    0.3354    0.0000 H   0  0  0  0  0  0  0  0  0  0  0  0
    7.0340   -1.2403    0.0000 H   0  0  0  0  0  0  0  0  0  0  0  0
    6.0863    1.3638    0.0000 H   0  0  0  0  0  0  0  0  0  0  0  0
    4.3049   -0.7591    0.0000 C   0  0  0  0  0  0  0  0  0  0  0  0
    3.4451   -2.1085    0.0000 H   0  0  0  0  0  0  0  0  0  0  0  0
    4.6511   -2.3211    0.0000 H   0  0  0  0  0  0  0  0  0  0  0  0
    3.0792    0.2694    0.0000 C   0  0  0  0  0  0  0  0  0  0  0  0
    3.9389    1.6188    0.0000 H   0  0  0  0  0  0  0  0  0  0  0  0
    2.7330    1.8315    0.0000 H   0  0  0  0  0  0  0  0  0  0  0  0
    1.5757   -0.2779    0.0000 C   0  0  0  0  0  0  0  0  0  0  0  0
    0.9635   -1.7561    0.0000 H   0  0  0  0  0  0  0  0  0  0  0  0
    2.1879   -1.7561    0.0000 H   0  0  0  0  0  0  0  0  0  0  0  0
   -0.0001    0.0000    0.0000 C   0  0  0  0  0  0  0  0  0  0  0  0
   -0.0001   -1.6000    0.0000 H   0  0  0  0  0  0  0  0  0  0  0  0
   -0.0001    1.6000    0.0000 C   0  0  0  0  0  0  0  0  0  0  0  0
    0.9741    2.8694    0.0000 H   0  0  0  0  0  0  0  0  0  0  0  0
    1.5863    1.8088    0.0000 H   0  0  0  0  0  0  0  0  0  0  0  0
   -1.3856    2.4000    0.0000 O   0  0  0  0  0  0  0  0  0  0  0  0
   -1.3856    4.0000    0.0000 H   0  0  0  0  0  0  0  0  0  0  0  0
   -1.5756   -0.2779    0.0000 C   0  0  0  0  0  0  0  0  0  0  0  0
   -2.9950    0.4610    0.0000 H   0  0  0  0  0  0  0  0  0  0  0  0
   -2.0568    1.2481    0.0000 H   0  0  0  0  0  0  0  0  0  0  0  0
   -2.1229   -1.7813    0.0000 C   0  0  0  0  0  0  0  0  0  0  0  0
   -2.6702   -3.2849    0.0000 H   0  0  0  0  0  0  0  0  0  0  0  0
   -3.6986   -2.0592    0.0000 H   0  0  0  0  0  0  0  0  0  0  0  0
   -1.0945   -3.0071    0.0000 H   0  0  0  0  0  0  0  0  0  0  0  0
  1  2  1  0  0  0  0
  1  3  1  0  0  0  0
  1  4  1  0  0  0  0
  1  5  1  0  0  0  0
  5  6  1  0  0  0  0
  5  7  1  0  0  0  0
  5  8  1  0  0  0  0
  8  9  1  0  0  0  0
  8 10  1  0  0  0  0
  8 11  1  0  0  0  0
 11 12  1  0  0  0  0
 11 13  1  0  0  0  0
 11 14  1  0  0  0  0
 14 15  1  0  0  0  0
 14 16  1  0  0  0  0
 16 17  1  0  0  0  0
 16 18  1  0  0  0  0
 16 19  1  0  0  0  0
 19 20  1  0  0  0  0
 14 21  1  0  0  0  0
 21 22  1  0  0  0  0
 21 23  1  0  0  0  0
 21 24  1  0  0  0  0
 24 25  1  0  0  0  0
 24 26  1  0  0  0  0
 24 27  1  0  0  0  0
M  END
> <ChemID>
100576

> <source_casrn>
104-76-7

> <CAS>
104-76-7

> <SMILES>
CCCCC(CO)CC

> <NAME>
2-ETHYL-1-HEXANOL

> <preferred_name>
2-Ethyl-1-hexanol

> <iupac>
2-ethylhexan-1-ol

> <MPID>
25210

> <dsstox_substance_id>
DTXSID5020605

> <Canonical_QSARr>
CCCCC(CO)CC

> <InChI_Code_QSARr>
InChI=1S/C8H18O/c1-3-5-6-8(4-2)7-9/h8-9H,3-7H2,1-2H3

> <InChI Key_QSARr>
YIWUKEYIRIRTPP-UHFFFAOYSA-N

> <Salt_Solvent>
?

> <LogVP>
-0.8665

$$$$
100580
  -INDIGO-08031723152D

 26 26  0  0  0  0  0  0  0  0999 V2000
    2.4000    1.3857    0.0000 N   0  0  0  0  0  0  0  0  0  0  0  0
    3.2000    2.7713    0.0000 H   0  0  0  0  0  0  0  0  0  0  0  0
    3.2000    0.0000    0.0000 C   0  0  0  0  0  0  0  0  0  0  0  0
    4.4257   -1.0285    0.0000 H   0  0  0  0  0  0  0  0  0  0  0  0
    4.4257    1.0285    0.0000 C   0  0  0  0  0  0  0  0  0  0  0  0
    5.6513    2.0570    0.0000 H   0  0  0  0  0  0  0  0  0  0  0  0
    5.9292    0.4812    0.0000 H   0  0  0  0  0  0  0  0  0  0  0  0
    4.1478    2.6042    0.0000 H   0  0  0  0  0  0  0  0  0  0  0  0
    2.4000   -1.3857    0.0000 C   0  0  0  0  0  0  0  0  0  0  0  0
    3.9035   -1.9329    0.0000 H   0  0  0  0  0  0  0  0  0  0  0  0
    2.1221   -2.9613    0.0000 H   0  0  0  0  0  0  0  0  0  0  0  0
    0.7999   -1.3857    0.0000 C   0  0  0  0  0  0  0  0  0  0  0  0
    1.0778   -2.9613    0.0000 H   0  0  0  0  0  0  0  0  0  0  0  0
   -0.7035   -1.9329    0.0000 H   0  0  0  0  0  0  0  0  0  0  0  0
   -0.0000    0.0000    0.0000 C   0  0  0  0  0  0  0  0  0  0  0  0
   -1.2256   -1.0285    0.0000 H   0  0  0  0  0  0  0  0  0  0  0  0
   -1.2256    1.0285    0.0000 C   0  0  0  0  0  0  0  0  0  0  0  0
   -0.3660    2.3779    0.0000 H   0  0  0  0  0  0  0  0  0  0  0  0
   -1.5720    2.5905    0.0000 H   0  0  0  0  0  0  0  0  0  0  0  0
   -2.7292    0.4812    0.0000 C   0  0  0  0  0  0  0  0  0  0  0  0
   -4.2327   -0.0660    0.0000 H   0  0  0  0  0  0  0  0  0  0  0  0
   -3.9548    1.5097    0.0000 H   0  0  0  0  0  0  0  0  0  0  0  0
   -3.0071   -1.0945    0.0000 H   0  0  0  0  0  0  0  0  0  0  0  0
    0.7999    1.3857    0.0000 C   0  0  0  0  0  0  0  0  0  0  0  0
   -0.7756    1.6635    0.0000 H   0  0  0  0  0  0  0  0  0  0  0  0
    1.0778    2.9613    0.0000 H   0  0  0  0  0  0  0  0  0  0  0  0
  1  2  1  0  0  0  0
  1  3  1  0  0  0  0
  3  4  1  0  0  0  0
  3  5  1  0  0  0  0
  5  6  1  0  0  0  0
  5  7  1  0  0  0  0
  5  8  1  0  0  0  0
  3  9  1  0  0  0  0
  9 10  1  0  0  0  0
  9 11  1  0  0  0  0
  9 12  1  0  0  0  0
 12 13  1  0  0  0  0
 12 14  1  0  0  0  0
 12 15  1  0  0  0  0
 15 16  1  0  0  0  0
 15 17  1  0  0  0  0
 17 18  1  0  0  0  0
 17 19  1  0  0  0  0
 17 20  1  0  0  0  0
 20 21  1  0  0  0  0
 20 22  1  0  0  0  0
 20 23  1  0  0  0  0
 15 24  1  0  0  0  0
 24  1  1  0  0  0  0
 24 25  1  0  0  0  0
 24 26  1  0  0  0  0
M  END
> <ChemID>
100580

> <source_casrn>
104-89-2

> <CAS>
58310-07-9

> <SMILES>
C[C@H]1CC[C@@H](CN1)CC

> <NAME>
2-METHYL-5-ETHYLPIPERIDINE

> <preferred_name>
Piperidine, 5-ethyl-2-methyl-, trans-

> <iupac>
C8H17N

> <MPID>
25214

> <dsstox_substance_id>
DTXSID60426383

> <Canonical_QSARr>
CC1CCC(CN1)CC

> <InChI_Code_QSARr>
InChI=1S/C8H17N/c1-3-8-5-4-7(2)9-6-8/h7-9H,3-6H2,1-2H3

> <InChI Key_QSARr>
XOFNHZHCGBPVGJ-UHFFFAOYSA-N

> <Salt_Solvent>
?

> <LogVP>
0.4577

$$$$
100584
  -INDIGO-08031723152D

 24 24  0  0  0  0  0  0  0  0999 V2000
    0.0001    0.0000    0.0000 C   0  0  0  0  0  0  0  0  0  0  0  0
   -0.7999    1.3856    0.0000 C   0  0  0  0  0  0  0  0  0  0  0  0
    0.0001    2.7713    0.0000 H   0  0  0  0  0  0  0  0  0  0  0  0
   -2.4001    1.3856    0.0000 C   0  0  0  0  0  0  0  0  0  0  0  0
   -3.2001    2.7713    0.0000 H   0  0  0  0  0  0  0  0  0  0  0  0
   -3.2001    0.0000    0.0000 C   0  0  0  0  0  0  0  0  0  0  0  0
   -4.8000   -0.0000    0.0000 C   0  0  0  0  0  0  0  0  0  0  0  0
   -5.0089   -1.5863    0.0000 H   0  0  0  0  0  0  0  0  0  0  0  0
   -6.0693   -0.9740    0.0000 H   0  0  0  0  0  0  0  0  0  0  0  0
   -5.6000    1.3856    0.0000 C   0  0  0  0  0  0  0  0  0  0  0  0
   -7.2000    1.3856    0.0000 H   0  0  0  0  0  0  0  0  0  0  0  0
   -6.4000    2.7713    0.0000 H   0  0  0  0  0  0  0  0  0  0  0  0
   -6.4000   -0.0000    0.0000 H   0  0  0  0  0  0  0  0  0  0  0  0
   -2.4001   -1.3856    0.0000 C   0  0  0  0  0  0  0  0  0  0  0  0
   -3.2001   -2.7713    0.0000 H   0  0  0  0  0  0  0  0  0  0  0  0
   -0.7999   -1.3856    0.0000 C   0  0  0  0  0  0  0  0  0  0  0  0
    0.0001   -2.7713    0.0000 H   0  0  0  0  0  0  0  0  0  0  0  0
    1.6000   -0.0000    0.0000 C   0  0  0  0  0  0  0  0  0  0  0  0
    1.8089    1.5863    0.0000 H   0  0  0  0  0  0  0  0  0  0  0  0
    2.8693    0.9740    0.0000 H   0  0  0  0  0  0  0  0  0  0  0  0
    2.4000   -1.3856    0.0000 C   0  0  0  0  0  0  0  0  0  0  0  0
    4.0000   -1.3856    0.0000 H   0  0  0  0  0  0  0  0  0  0  0  0
    3.2000   -2.7713    0.0000 H   0  0  0  0  0  0  0  0  0  0  0  0
    3.2000   -0.0000    0.0000 H   0  0  0  0  0  0  0  0  0  0  0  0
  1  2  1  0  0  0  0
  2  3  1  0  0  0  0
  2  4  2  0  0  0  0
  4  5  1  0  0  0  0
  4  6  1  0  0  0  0
  6  7  1  0  0  0  0
  7  8  1  0  0  0  0
  7  9  1  0  0  0  0
  7 10  1  0  0  0  0
 10 11  1  0  0  0  0
 10 12  1  0  0  0  0
 10 13  1  0  0  0  0
  6 14  2  0  0  0  0
 14 15  1  0  0  0  0
 14 16  1  0  0  0  0
 16  1  2  0  0  0  0
 16 17  1  0  0  0  0
  1 18  1  0  0  0  0
 18 19  1  0  0  0  0
 18 20  1  0  0  0  0
 18 21  1  0  0  0  0
 21 22  1  0  0  0  0
 21 23  1  0  0  0  0
 21 24  1  0  0  0  0
M  END
> <ChemID>
100584

> <source_casrn>
105-05-5

> <CAS>
105-05-5

> <SMILES>
CCc1ccc(CC)cc1

> <NAME>
P-DIETHYLBENZENE

> <preferred_name>
1,4-Diethylbenzene

> <iupac>
1,4-diethylbenzene

> <MPID>
25218

> <dsstox_substance_id>
DTXSID4026711

> <Canonical_QSARr>
CCc1ccc(CC)cc1

> <InChI_Code_QSARr>
InChI=1S/C10H14/c1-3-9-5-7-10(4-2)8-6-9/h5-8H,3-4H2,1-2H3

> <InChI Key_QSARr>
DSNHSQKRULAAEI-UHFFFAOYSA-N

> <Salt_Solvent>
?

> <LogVP>
0.0253

$$$$
100588
  -INDIGO-08031723152D

 17 16  0  0  0  0  0  0  0  0999 V2000
   -1.3856    0.8000    0.0000 C   0  0  0  0  0  0  0  0  0  0  0  0
   -1.3856    2.4000    0.0000 O   0  0  0  0  0  0  0  0  0  0  0  0
   -2.7713    0.0000    0.0000 O   0  0  0  0  0  0  0  0  0  0  0  0
   -4.1570    0.8000    0.0000 C   0  0  0  0  0  0  0  0  0  0  0  0
   -4.7693    2.2782    0.0000 H   0  0  0  0  0  0  0  0  0  0  0  0
   -3.5447    2.2782    0.0000 H   0  0  0  0  0  0  0  0  0  0  0  0
   -5.5426    0.0000    0.0000 C   0  0  0  0  0  0  0  0  0  0  0  0
   -6.9282   -0.8000    0.0000 H   0  0  0  0  0  0  0  0  0  0  0  0
   -6.9282    0.8000    0.0000 H   0  0  0  0  0  0  0  0  0  0  0  0
   -5.5426   -1.6000    0.0000 H   0  0  0  0  0  0  0  0  0  0  0  0
    0.0000    0.0000    0.0000 C   0  0  0  0  0  0  0  0  0  0  0  0
    0.6123   -1.4782    0.0000 H   0  0  0  0  0  0  0  0  0  0  0  0
   -0.6123   -1.4782    0.0000 H   0  0  0  0  0  0  0  0  0  0  0  0
    1.3857    0.8000    0.0000 C   0  0  0  0  0  0  0  0  0  0  0  0
    2.7713    1.6000    0.0000 H   0  0  0  0  0  0  0  0  0  0  0  0
    2.7713    0.0000    0.0000 H   0  0  0  0  0  0  0  0  0  0  0  0
    1.3857    2.4000    0.0000 H   0  0  0  0  0  0  0  0  0  0  0  0
  1  2  2  0  0  0  0
  1  3  1  0  0  0  0
  3  4  1  0  0  0  0
  4  5  1  0  0  0  0
  4  6  1  0  0  0  0
  4  7  1  0  0  0  0
  7  8  1  0  0  0  0
  7  9  1  0  0  0  0
  7 10  1  0  0  0  0
  1 11  1  0  0  0  0
 11 12  1  0  0  0  0
 11 13  1  0  0  0  0
 11 14  1  0  0  0  0
 14 15  1  0  0  0  0
 14 16  1  0  0  0  0
 14 17  1  0  0  0  0
M  END
> <ChemID>
100588

> <source_casrn>
105-37-3

> <CAS>
105-37-3

> <SMILES>
CCC(=O)OCC

> <NAME>
ETHYL PROPIONATE

> <preferred_name>
Ethyl propionate

> <iupac>
ethyl propanoate

> <MPID>
25222

> <dsstox_substance_id>
DTXSID1040110

> <Canonical_QSARr>
CCC(=O)OCC

> <InChI_Code_QSARr>
InChI=1S/C5H10O2/c1-3-5(6)7-4-2/h3-4H2,1-2H3

> <InChI Key_QSARr>
FKRCODPIKNYEAC-UHFFFAOYSA-N

> <Salt_Solvent>
?

> <LogVP>
1.5545

$$$$
100592
  -INDIGO-08031723152D

 20 19  0  0  0  0  0  0  0  0999 V2000
    2.8891    0.2528    0.0000 C   0  0  0  0  0  0  0  0  0  0  0  0
    3.1670   -1.3229    0.0000 O   0  0  0  0  0  0  0  0  0  0  0  0
    1.3857    0.8000    0.0000 O   0  0  0  0  0  0  0  0  0  0  0  0
    0.0001    0.0000    0.0000 C   0  0  0  0  0  0  0  0  0  0  0  0
   -1.3856   -0.8000    0.0000 H   0  0  0  0  0  0  0  0  0  0  0  0
    0.8000   -1.3856    0.0000 C   0  0  0  0  0  0  0  0  0  0  0  0
    2.2782   -0.7733    0.0000 H   0  0  0  0  0  0  0  0  0  0  0  0
    2.2782   -1.9979    0.0000 H   0  0  0  0  0  0  0  0  0  0  0  0
    0.0001   -2.7713    0.0000 C   0  0  0  0  0  0  0  0  0  0  0  0
   -0.8000   -4.1569    0.0000 H   0  0  0  0  0  0  0  0  0  0  0  0
    0.8000   -4.1569    0.0000 H   0  0  0  0  0  0  0  0  0  0  0  0
   -1.5999   -2.7713    0.0000 H   0  0  0  0  0  0  0  0  0  0  0  0
   -0.8000    1.3857    0.0000 C   0  0  0  0  0  0  0  0  0  0  0  0
   -1.5999    2.7713    0.0000 H   0  0  0  0  0  0  0  0  0  0  0  0
   -2.4000    1.3857    0.0000 H   0  0  0  0  0  0  0  0  0  0  0  0
    0.0001    2.7713    0.0000 H   0  0  0  0  0  0  0  0  0  0  0  0
    4.1149    1.2812    0.0000 C   0  0  0  0  0  0  0  0  0  0  0  0
    5.3405    2.3097    0.0000 H   0  0  0  0  0  0  0  0  0  0  0  0
    5.6183    0.7340    0.0000 H   0  0  0  0  0  0  0  0  0  0  0  0
    3.8370    2.8569    0.0000 H   0  0  0  0  0  0  0  0  0  0  0  0
  1  2  2  0  0  0  0
  1  3  1  0  0  0  0
  3  4  1  0  0  0  0
  4  5  1  0  0  0  0
  4  6  1  0  0  0  0
  6  7  1  0  0  0  0
  6  8  1  0  0  0  0
  6  9  1  0  0  0  0
  9 10  1  0  0  0  0
  9 11  1  0  0  0  0
  9 12  1  0  0  0  0
  4 13  1  0  0  0  0
 13 14  1  0  0  0  0
 13 15  1  0  0  0  0
 13 16  1  0  0  0  0
  1 17  1  0  0  0  0
 17 18  1  0  0  0  0
 17 19  1  0  0  0  0
 17 20  1  0  0  0  0
M  END
> <ChemID>
100592

> <source_casrn>
105-46-4

> <CAS>
105-46-4

> <SMILES>
CCC(C)OC(C)=O

> <NAME>
S-BUTYLACETATE

> <preferred_name>
Butan-2-yl acetate

> <iupac>
butan-2-yl acetate

> <MPID>
25226

> <dsstox_substance_id>
DTXSID0047612

> <Canonical_QSARr>
CCC(C)OC(C)=O

> <InChI_Code_QSARr>
InChI=1S/C6H12O2/c1-4-5(2)8-6(3)7/h5H,4H2,1-3H3

> <InChI Key_QSARr>
DCKVNWZUADLDEH-UHFFFAOYSA-N

> <Salt_Solvent>
?

> <LogVP>
1.2304

$$$$
100596
  -INDIGO-08031723152D

 15 14  0  0  0  0  0  0  0  0999 V2000
   -2.7713    0.0000    0.0000 C   0  0  0  0  0  0  0  0  0  0  0  0
   -2.7713   -1.6000    0.0000 O   0  0  0  0  0  0  0  0  0  0  0  0
   -1.3856    0.8000    0.0000 O   0  0  0  0  0  0  0  0  0  0  0  0
    0.0000    0.0000    0.0000 C   0  0  0  0  0  0  0  0  0  0  0  0
    0.6123   -1.4782    0.0000 H   0  0  0  0  0  0  0  0  0  0  0  0
   -0.6123   -1.4782    0.0000 H   0  0  0  0  0  0  0  0  0  0  0  0
    1.3857    0.8000    0.0000 C   0  0  0  0  0  0  0  0  0  0  0  0
    2.7713    1.6000    0.0000 H   0  0  0  0  0  0  0  0  0  0  0  0
    2.7713    0.0000    0.0000 H   0  0  0  0  0  0  0  0  0  0  0  0
    1.3857    2.4000    0.0000 H   0  0  0  0  0  0  0  0  0  0  0  0
   -4.1570    0.8000    0.0000 C   0  0  0  0  0  0  0  0  0  0  0  0
   -4.7693    2.2782    0.0000 H   0  0  0  0  0  0  0  0  0  0  0  0
   -3.5447    2.2782    0.0000 H   0  0  0  0  0  0  0  0  0  0  0  0
   -5.5426    0.0000    0.0000 C   0  0  0  0  0  0  0  0  0  0  0  0
   -6.9282   -0.8000    0.0000 N   0  0  0  0  0  0  0  0  0  0  0  0
  1  2  2  0  0  0  0
  1  3  1  0  0  0  0
  3  4  1  0  0  0  0
  4  5  1  0  0  0  0
  4  6  1  0  0  0  0
  4  7  1  0  0  0  0
  7  8  1  0  0  0  0
  7  9  1  0  0  0  0
  7 10  1  0  0  0  0
  1 11  1  0  0  0  0
 11 12  1  0  0  0  0
 11 13  1  0  0  0  0
 11 14  1  0  0  0  0
 14 15  3  0  0  0  0
M  END
> <ChemID>
100596

> <source_casrn>
105-56-6

> <CAS>
105-56-6

> <SMILES>
CCOC(=O)CC#N

> <NAME>
ETHYL CYANOACETATE

> <preferred_name>
Ethyl cyanoacetate

> <iupac>
ethyl cyanoacetate

> <MPID>
25230

> <dsstox_substance_id>
DTXSID9026718

> <Canonical_QSARr>
CCOC(=O)CC#N

> <InChI_Code_QSARr>
InChI=1S/C5H7NO2/c1-2-8-5(7)3-4-6/h2-3H2,1H3

> <InChI Key_QSARr>
ZIUSEGSNTOUIPT-UHFFFAOYSA-N

> <Salt_Solvent>
?

> <LogVP>
-1.4112

$$$$
100600
  -INDIGO-08031723152D

 19 19  0  0  0  0  0  0  0  0999 V2000
    1.4942    4.9466    0.0000 O   0  0  0  0  0  0  0  0  0  0  0  0
    0.8000    3.5051    0.0000 C   0  0  0  0  0  0  0  0  0  0  0  0
    1.7976    2.2541    0.0000 C   0  0  0  0  0  0  0  0  0  0  0  0
    2.7952    3.5051    0.0000 H   0  0  0  0  0  0  0  0  0  0  0  0
    3.3378    1.8208    0.0000 H   0  0  0  0  0  0  0  0  0  0  0  0
    1.4415    0.6943    0.0000 C   0  0  0  0  0  0  0  0  0  0  0  0
    3.0416    0.6943    0.0000 H   0  0  0  0  0  0  0  0  0  0  0  0
    1.7976   -0.8657    0.0000 H   0  0  0  0  0  0  0  0  0  0  0  0
   -0.0000    0.0000    0.0000 C   0  0  0  0  0  0  0  0  0  0  0  0
    0.7652   -1.4052    0.0000 H   0  0  0  0  0  0  0  0  0  0  0  0
   -0.9976   -1.2510    0.0000 H   0  0  0  0  0  0  0  0  0  0  0  0
   -1.4415    0.6943    0.0000 C   0  0  0  0  0  0  0  0  0  0  0  0
   -2.0631   -0.7801    0.0000 H   0  0  0  0  0  0  0  0  0  0  0  0
   -3.0416    0.6943    0.0000 H   0  0  0  0  0  0  0  0  0  0  0  0
   -1.7976    2.2541    0.0000 C   0  0  0  0  0  0  0  0  0  0  0  0
   -3.3378    1.8208    0.0000 H   0  0  0  0  0  0  0  0  0  0  0  0
   -2.7952    3.5051    0.0000 H   0  0  0  0  0  0  0  0  0  0  0  0
   -0.8000    3.5051    0.0000 N   0  0  0  0  0  0  0  0  0  0  0  0
   -1.4942    4.9466    0.0000 H   0  0  0  0  0  0  0  0  0  0  0  0
  1  2  2  0  0  0  0
  2  3  1  0  0  0  0
  3  4  1  0  0  0  0
  3  5  1  0  0  0  0
  3  6  1  0  0  0  0
  6  7  1  0  0  0  0
  6  8  1  0  0  0  0
  6  9  1  0  0  0  0
  9 10  1  0  0  0  0
  9 11  1  0  0  0  0
  9 12  1  0  0  0  0
 12 13  1  0  0  0  0
 12 14  1  0  0  0  0
 12 15  1  0  0  0  0
 15 16  1  0  0  0  0
 15 17  1  0  0  0  0
 15 18  1  0  0  0  0
 18  2  1  0  0  0  0
 18 19  1  0  0  0  0
M  END
> <ChemID>
100600

> <source_casrn>
105-60-2

> <CAS>
105-60-2

> <SMILES>
O=C1CCCCCN1

> <NAME>
CAPROLACTAM

> <preferred_name>
Caprolactam

> <iupac>
azepan-2-one

> <MPID>
25234

> <dsstox_substance_id>
DTXSID4020240

> <Canonical_QSARr>
O=C1CCCCCN1

> <InChI_Code_QSARr>
InChI=1S/C6H11NO/c8-6-4-2-1-3-5-7-6/h1-5H2,(H,7,8)

> <InChI Key_QSARr>
JBKVHLHDHHXQEQ-UHFFFAOYSA-N

> <Salt_Solvent>
?

> <LogVP>
-2.7959

$$$$
100604
  -INDIGO-08031723152D

 34 33  0  0  0  0  0  0  0  0999 V2000
   -6.9281    2.4000    0.0000 O   0  0  0  0  0  0  0  0  0  0  0  0
   -6.9281    0.8000    0.0000 C   0  0  0  0  0  0  0  0  0  0  0  0
   -5.5425   -0.0000    0.0000 O   0  0  0  0  0  0  0  0  0  0  0  0
   -4.1569    0.8000    0.0000 C   0  0  0  0  0  0  0  0  0  0  0  0
   -4.7692    2.2782    0.0000 H   0  0  0  0  0  0  0  0  0  0  0  0
   -3.5447    2.2782    0.0000 H   0  0  0  0  0  0  0  0  0  0  0  0
   -2.7713   -0.0000    0.0000 C   0  0  0  0  0  0  0  0  0  0  0  0
   -2.7713   -1.6000    0.0000 H   0  0  0  0  0  0  0  0  0  0  0  0
   -1.3855    0.8000    0.0000 C   0  0  0  0  0  0  0  0  0  0  0  0
    0.0001   -0.0000    0.0000 C   0  0  0  0  0  0  0  0  0  0  0  0
    0.6123   -1.4782    0.0000 H   0  0  0  0  0  0  0  0  0  0  0  0
   -0.6122   -1.4782    0.0000 H   0  0  0  0  0  0  0  0  0  0  0  0
    1.3856    0.8000    0.0000 C   0  0  0  0  0  0  0  0  0  0  0  0
    0.7734    2.2782    0.0000 H   0  0  0  0  0  0  0  0  0  0  0  0
    1.9979    2.2782    0.0000 H   0  0  0  0  0  0  0  0  0  0  0  0
    2.7712   -0.0000    0.0000 C   0  0  0  0  0  0  0  0  0  0  0  0
    2.7712   -1.6000    0.0000 H   0  0  0  0  0  0  0  0  0  0  0  0
    4.1570    0.8000    0.0000 C   0  0  0  0  0  0  0  0  0  0  0  0
    5.5426   -0.0000    0.0000 C   0  0  0  0  0  0  0  0  0  0  0  0
    6.9282   -0.8000    0.0000 H   0  0  0  0  0  0  0  0  0  0  0  0
    6.9282    0.8000    0.0000 H   0  0  0  0  0  0  0  0  0  0  0  0
    5.5426   -1.6000    0.0000 H   0  0  0  0  0  0  0  0  0  0  0  0
    4.1570    2.4000    0.0000 C   0  0  0  0  0  0  0  0  0  0  0  0
    4.1570    4.0000    0.0000 H   0  0  0  0  0  0  0  0  0  0  0  0
    5.5426    3.2000    0.0000 H   0  0  0  0  0  0  0  0  0  0  0  0
    2.7712    3.2000    0.0000 H   0  0  0  0  0  0  0  0  0  0  0  0
   -1.3855    2.4000    0.0000 C   0  0  0  0  0  0  0  0  0  0  0  0
   -1.3855    4.0000    0.0000 H   0  0  0  0  0  0  0  0  0  0  0  0
   -2.7713    3.2000    0.0000 H   0  0  0  0  0  0  0  0  0  0  0  0
    0.0001    3.2000    0.0000 H   0  0  0  0  0  0  0  0  0  0  0  0
   -8.3139   -0.0000    0.0000 C   0  0  0  0  0  0  0  0  0  0  0  0
   -9.6995   -0.8000    0.0000 H   0  0  0  0  0  0  0  0  0  0  0  0
   -9.6995    0.8000    0.0000 H   0  0  0  0  0  0  0  0  0  0  0  0
   -8.3139   -1.6000    0.0000 H   0  0  0  0  0  0  0  0  0  0  0  0
  1  2  2  0  0  0  0
  2  3  1  0  0  0  0
  3  4  1  0  0  0  0
  4  5  1  0  0  0  0
  4  6  1  0  0  0  0
  4  7  1  0  0  0  0
  7  8  1  0  0  0  0
  7  9  2  0  0  0  0
  9 10  1  0  0  0  0
 10 11  1  0  0  0  0
 10 12  1  0  0  0  0
 10 13  1  0  0  0  0
 13 14  1  0  0  0  0
 13 15  1  0  0  0  0
 13 16  1  0  0  0  0
 16 17  1  0  0  0  0
 16 18  2  0  0  0  0
 18 19  1  0  0  0  0
 19 20  1  0  0  0  0
 19 21  1  0  0  0  0
 19 22  1  0  0  0  0
 18 23  1  0  0  0  0
 23 24  1  0  0  0  0
 23 25  1  0  0  0  0
 23 26  1  0  0  0  0
  9 27  1  0  0  0  0
 27 28  1  0  0  0  0
 27 29  1  0  0  0  0
 27 30  1  0  0  0  0
  2 31  1  0  0  0  0
 31 32  1  0  0  0  0
 31 33  1  0  0  0  0
 31 34  1  0  0  0  0
M  END
> <ChemID>
100604

> <source_casrn>
105-87-3

> <CAS>
105-87-3

> <SMILES>
CC(C)=CCC/C(/C)=C/COC(C)=O

> <NAME>
GERANIOL ACETATE

> <preferred_name>
Geranyl acetate

> <iupac>
(2E)-3,7-dimethylocta-2,6-dien-1-yl acetate

> <MPID>
25238

> <dsstox_substance_id>
DTXSID0020654

> <Canonical_QSARr>
CC(C)=CCCC(C)=CCOC(C)=O

> <InChI_Code_QSARr>
InChI=1S/C12H20O2/c1-10(2)6-5-7-11(3)8-9-14-12(4)13/h6,8H,5,7,9H2,1-4H3/b11-8+

> <InChI Key_QSARr>
HIGQPQRQIQDZMP-DHZHZOJOSA-N

> <Salt_Solvent>
?

> <LogVP>
-1.4815

$$$$
100609
  -INDIGO-08031723152D

 29 28  0  0  0  0  0  0  0  0999 V2000
   -5.4584   -0.9625    0.0000 C   0  0  0  0  0  0  0  0  0  0  0  0
   -5.1805   -2.5381    0.0000 O   0  0  0  0  0  0  0  0  0  0  0  0
   -4.2326    0.0660    0.0000 O   0  0  0  0  0  0  0  0  0  0  0  0
   -2.7292   -0.4813    0.0000 C   0  0  0  0  0  0  0  0  0  0  0  0
   -3.0755   -2.0433    0.0000 H   0  0  0  0  0  0  0  0  0  0  0  0
   -1.8695   -1.8307    0.0000 H   0  0  0  0  0  0  0  0  0  0  0  0
   -1.5036    0.5472    0.0000 C   0  0  0  0  0  0  0  0  0  0  0  0
   -1.1573    2.1093    0.0000 H   0  0  0  0  0  0  0  0  0  0  0  0
   -2.3633    1.8966    0.0000 H   0  0  0  0  0  0  0  0  0  0  0  0
    0.0001   -0.0000    0.0000 C   0  0  0  0  0  0  0  0  0  0  0  0
   -0.7999   -1.3856    0.0000 H   0  0  0  0  0  0  0  0  0  0  0  0
    1.3857   -0.8000    0.0000 C   0  0  0  0  0  0  0  0  0  0  0  0
    2.7713   -1.6000    0.0000 H   0  0  0  0  0  0  0  0  0  0  0  0
    1.3857   -2.4000    0.0000 H   0  0  0  0  0  0  0  0  0  0  0  0
    2.7713   -0.0000    0.0000 H   0  0  0  0  0  0  0  0  0  0  0  0
    0.8001    1.3856    0.0000 C   0  0  0  0  0  0  0  0  0  0  0  0
    1.6001    2.7713    0.0000 H   0  0  0  0  0  0  0  0  0  0  0  0
    0.0001    2.7713    0.0000 H   0  0  0  0  0  0  0  0  0  0  0  0
    2.4001    1.3856    0.0000 H   0  0  0  0  0  0  0  0  0  0  0  0
   -6.9619   -0.4152    0.0000 C   0  0  0  0  0  0  0  0  0  0  0  0
   -6.6156    1.1468    0.0000 H   0  0  0  0  0  0  0  0  0  0  0  0
   -7.8215    0.9342    0.0000 H   0  0  0  0  0  0  0  0  0  0  0  0
   -8.1876   -1.4437    0.0000 C   0  0  0  0  0  0  0  0  0  0  0  0
   -8.5339   -3.0058    0.0000 H   0  0  0  0  0  0  0  0  0  0  0  0
   -7.3278   -2.7931    0.0000 H   0  0  0  0  0  0  0  0  0  0  0  0
   -9.6911   -0.8965    0.0000 C   0  0  0  0  0  0  0  0  0  0  0  0
  -11.1946   -0.3492    0.0000 H   0  0  0  0  0  0  0  0  0  0  0  0
  -10.9167   -1.9249    0.0000 H   0  0  0  0  0  0  0  0  0  0  0  0
   -9.9690    0.6793    0.0000 H   0  0  0  0  0  0  0  0  0  0  0  0
  1  2  2  0  0  0  0
  1  3  1  0  0  0  0
  3  4  1  0  0  0  0
  4  5  1  0  0  0  0
  4  6  1  0  0  0  0
  4  7  1  0  0  0  0
  7  8  1  0  0  0  0
  7  9  1  0  0  0  0
  7 10  1  0  0  0  0
 10 11  1  0  0  0  0
 10 12  1  0  0  0  0
 12 13  1  0  0  0  0
 12 14  1  0  0  0  0
 12 15  1  0  0  0  0
 10 16  1  0  0  0  0
 16 17  1  0  0  0  0
 16 18  1  0  0  0  0
 16 19  1  0  0  0  0
  1 20  1  0  0  0  0
 20 21  1  0  0  0  0
 20 22  1  0  0  0  0
 20 23  1  0  0  0  0
 23 24  1  0  0  0  0
 23 25  1  0  0  0  0
 23 26  1  0  0  0  0
 26 27  1  0  0  0  0
 26 28  1  0  0  0  0
 26 29  1  0  0  0  0
M  END
> <ChemID>
100609

> <source_casrn>
106-27-4

> <CAS>
106-27-4

> <SMILES>
CCCC(=O)OCCC(C)C

> <NAME>
ISOPENTYL BUTANOATE

> <preferred_name>
Isopentyl butyrate

> <iupac>
3-methylbutyl butanoate

> <MPID>
25243

> <dsstox_substance_id>
DTXSID3042059

> <Canonical_QSARr>
CCCC(=O)OCCC(C)C

> <InChI_Code_QSARr>
InChI=1S/C9H18O2/c1-4-5-9(10)11-7-6-8(2)3/h8H,4-7H2,1-3H3

> <InChI Key_QSARr>
PQLMXFQTAMDXIZ-UHFFFAOYSA-N

> <Salt_Solvent>
?

> <LogVP>
-0.0223

$$$$
100613
  -INDIGO-08031723152D

 20 19  0  0  0  0  0  0  0  0999 V2000
    4.1569    0.8000    0.0000 C   0  0  0  0  0  0  0  0  0  0  0  0
    5.5425    0.0000    0.0000 C   0  0  0  0  0  0  0  0  0  0  0  0
    6.1548   -1.4782    0.0000 H   0  0  0  0  0  0  0  0  0  0  0  0
    4.9302   -1.4782    0.0000 H   0  0  0  0  0  0  0  0  0  0  0  0
    6.9282    0.8000    0.0000 C   0  0  0  0  0  0  0  0  0  0  0  0
    8.3138    1.6000    0.0000 H   0  0  0  0  0  0  0  0  0  0  0  0
    8.3138    0.0000    0.0000 H   0  0  0  0  0  0  0  0  0  0  0  0
    6.9282    2.4000    0.0000 H   0  0  0  0  0  0  0  0  0  0  0  0
    2.7714    0.0000    0.0000 O   0  0  0  0  0  0  0  0  0  0  0  0
    1.3857    0.8000    0.0000 C   0  0  0  0  0  0  0  0  0  0  0  0
    0.7734    2.2782    0.0000 H   0  0  0  0  0  0  0  0  0  0  0  0
    1.9979    2.2782    0.0000 H   0  0  0  0  0  0  0  0  0  0  0  0
    0.0000    0.0000    0.0000 C   0  0  0  0  0  0  0  0  0  0  0  0
    0.6124   -1.4782    0.0000 H   0  0  0  0  0  0  0  0  0  0  0  0
   -0.6123   -1.4782    0.0000 H   0  0  0  0  0  0  0  0  0  0  0  0
   -1.3856    0.8000    0.0000 C   0  0  0  0  0  0  0  0  0  0  0  0
   -2.7713    1.6000    0.0000 H   0  0  0  0  0  0  0  0  0  0  0  0
   -2.7713    0.0000    0.0000 H   0  0  0  0  0  0  0  0  0  0  0  0
   -1.3856    2.4000    0.0000 H   0  0  0  0  0  0  0  0  0  0  0  0
    4.1569    2.4000    0.0000 O   0  0  0  0  0  0  0  0  0  0  0  0
  1  2  1  0  0  0  0
  2  3  1  0  0  0  0
  2  4  1  0  0  0  0
  2  5  1  0  0  0  0
  5  6  1  0  0  0  0
  5  7  1  0  0  0  0
  5  8  1  0  0  0  0
  1  9  1  0  0  0  0
  9 10  1  0  0  0  0
 10 11  1  0  0  0  0
 10 12  1  0  0  0  0
 10 13  1  0  0  0  0
 13 14  1  0  0  0  0
 13 15  1  0  0  0  0
 13 16  1  0  0  0  0
 16 17  1  0  0  0  0
 16 18  1  0  0  0  0
 16 19  1  0  0  0  0
  1 20  2  0  0  0  0
M  END
> <ChemID>
100613

> <source_casrn>
106-36-5

> <CAS>
106-36-5

> <SMILES>
CCC(=O)OCCC

> <NAME>
N-PROPYLPROPIONATE

> <preferred_name>
Propyl propionate

> <iupac>
propyl propanoate

> <MPID>
25247

> <dsstox_substance_id>
DTXSID4042337

> <Canonical_QSARr>
CCC(=O)OCCC

> <InChI_Code_QSARr>
InChI=1S/C6H12O2/c1-3-5-8-6(7)4-2/h3-5H2,1-2H3

> <InChI Key_QSARr>
MCSINKKTEDDPNK-UHFFFAOYSA-N

> <Salt_Solvent>
?

> <LogVP>
1.1443

$$$$
100617
  -INDIGO-08031723152D

 13 13  0  0  0  0  0  0  0  0999 V2000
   -0.0000   -0.0000    0.0000 C   0  0  0  0  0  0  0  0  0  0  0  0
    0.8000    1.3856    0.0000 O   0  0  0  0  0  0  0  0  0  0  0  0
    2.4000    1.3856    0.0000 H   0  0  0  0  0  0  0  0  0  0  0  0
    0.8000   -1.3857    0.0000 C   0  0  0  0  0  0  0  0  0  0  0  0
    2.4000   -1.3857    0.0000 H   0  0  0  0  0  0  0  0  0  0  0  0
   -0.0000   -2.7713    0.0000 C   0  0  0  0  0  0  0  0  0  0  0  0
    0.8000   -4.1569    0.0000 H   0  0  0  0  0  0  0  0  0  0  0  0
   -1.6000   -2.7713    0.0000 C   0  0  0  0  0  0  0  0  0  0  0  0
   -2.4000   -4.1569    0.0000 Br  0  0  0  0  0  0  0  0  0  0  0  0
   -2.4000   -1.3856    0.0000 C   0  0  0  0  0  0  0  0  0  0  0  0
   -4.0000   -1.3856    0.0000 H   0  0  0  0  0  0  0  0  0  0  0  0
   -1.6000   -0.0000    0.0000 C   0  0  0  0  0  0  0  0  0  0  0  0
   -2.4000    1.3856    0.0000 H   0  0  0  0  0  0  0  0  0  0  0  0
  1  2  1  0  0  0  0
  2  3  1  0  0  0  0
  1  4  1  0  0  0  0
  4  5  1  0  0  0  0
  4  6  2  0  0  0  0
  6  7  1  0  0  0  0
  6  8  1  0  0  0  0
  8  9  1  0  0  0  0
  8 10  2  0  0  0  0
 10 11  1  0  0  0  0
 10 12  1  0  0  0  0
 12  1  2  0  0  0  0
 12 13  1  0  0  0  0
M  END
> <ChemID>
100617

> <source_casrn>
106-41-2

> <CAS>
106-41-2

> <SMILES>
Oc1ccc(Br)cc1

> <NAME>
P-BROMOPHENOL

> <preferred_name>
4-Bromophenol

> <iupac>
4-bromophenol

> <MPID>
25251

> <dsstox_substance_id>
DTXSID3051543

> <Canonical_QSARr>
Oc1ccc(Br)cc1

> <InChI_Code_QSARr>
InChI=1S/C6H5BrO/c7-5-1-3-6(8)4-2-5/h1-4,8H

> <InChI Key_QSARr>
GZFGOTFRPZRKDS-UHFFFAOYSA-N

> <Salt_Solvent>
?

> <LogVP>
-1.93

$$$$
100621
  -INDIGO-08031723152D

 16 16  0  0  0  0  0  0  0  0999 V2000
   -0.8000    1.3856    0.0000 C   0  0  0  0  0  0  0  0  0  0  0  0
   -0.0000    2.7713    0.0000 H   0  0  0  0  0  0  0  0  0  0  0  0
   -2.4000    1.3856    0.0000 C   0  0  0  0  0  0  0  0  0  0  0  0
   -3.2000    2.7713    0.0000 H   0  0  0  0  0  0  0  0  0  0  0  0
   -3.2000   -0.0000    0.0000 C   0  0  0  0  0  0  0  0  0  0  0  0
   -4.8000    0.0000    0.0000 S   0  0  0  0  0  0  0  0  0  0  0  0
   -5.6000   -1.3856    0.0000 H   0  0  0  0  0  0  0  0  0  0  0  0
   -2.4000   -1.3856    0.0000 C   0  0  0  0  0  0  0  0  0  0  0  0
   -3.2000   -2.7713    0.0000 H   0  0  0  0  0  0  0  0  0  0  0  0
   -0.8000   -1.3856    0.0000 C   0  0  0  0  0  0  0  0  0  0  0  0
   -0.0000   -2.7713    0.0000 H   0  0  0  0  0  0  0  0  0  0  0  0
   -0.0000   -0.0000    0.0000 C   0  0  0  0  0  0  0  0  0  0  0  0
    1.6001    0.0000    0.0000 C   0  0  0  0  0  0  0  0  0  0  0  0
    3.2000    0.0000    0.0000 H   0  0  0  0  0  0  0  0  0  0  0  0
    2.4000   -1.3856    0.0000 H   0  0  0  0  0  0  0  0  0  0  0  0
    2.4000    1.3856    0.0000 H   0  0  0  0  0  0  0  0  0  0  0  0
  1  2  1  0  0  0  0
  1  3  1  0  0  0  0
  3  4  1  0  0  0  0
  3  5  2  0  0  0  0
  5  6  1  0  0  0  0
  6  7  1  0  0  0  0
  5  8  1  0  0  0  0
  8  9  1  0  0  0  0
  8 10  2  0  0  0  0
 10 11  1  0  0  0  0
 10 12  1  0  0  0  0
 12  1  2  0  0  0  0
 12 13  1  0  0  0  0
 13 14  1  0  0  0  0
 13 15  1  0  0  0  0
 13 16  1  0  0  0  0
M  END
> <ChemID>
100621

> <source_casrn>
106-45-6

> <CAS>
106-45-6

> <SMILES>
Cc1ccc(S)cc1

> <NAME>
4-METHYLBENZENETHIOL

> <preferred_name>
4-Thiocresol

> <iupac>
4-methylbenzenethiol

> <MPID>
25255

> <dsstox_substance_id>
DTXSID5048188

> <Canonical_QSARr>
Cc1ccc(S)cc1

> <InChI_Code_QSARr>
InChI=1S/C7H8S/c1-6-2-4-7(8)5-3-6/h2-5,8H,1H3

> <InChI Key_QSARr>
WLHCBQAPPJAULW-UHFFFAOYSA-N

> <Salt_Solvent>
?

> <LogVP>
-0.1906

$$$$
100625
  -INDIGO-08031723152D

 17 17  0  0  0  0  0  0  0  0999 V2000
    4.8000   -0.0000    0.0000 N   0  0  0  0  0  0  0  0  0  0  0  0
    5.6000    1.3856    0.0000 H   0  0  0  0  0  0  0  0  0  0  0  0
    5.6000   -1.3856    0.0000 H   0  0  0  0  0  0  0  0  0  0  0  0
    3.2000   -0.0000    0.0000 C   0  0  0  0  0  0  0  0  0  0  0  0
    2.4000    1.3856    0.0000 C   0  0  0  0  0  0  0  0  0  0  0  0
    3.2000    2.7713    0.0000 H   0  0  0  0  0  0  0  0  0  0  0  0
    0.8000    1.3856    0.0000 C   0  0  0  0  0  0  0  0  0  0  0  0
    0.0000    2.7713    0.0000 H   0  0  0  0  0  0  0  0  0  0  0  0
    0.0000   -0.0000    0.0000 C   0  0  0  0  0  0  0  0  0  0  0  0
   -1.6001   -0.0000    0.0000 C   0  0  0  0  0  0  0  0  0  0  0  0
   -3.2000   -0.0000    0.0000 H   0  0  0  0  0  0  0  0  0  0  0  0
   -2.4000   -1.3856    0.0000 H   0  0  0  0  0  0  0  0  0  0  0  0
   -2.4000    1.3856    0.0000 H   0  0  0  0  0  0  0  0  0  0  0  0
    0.8000   -1.3856    0.0000 C   0  0  0  0  0  0  0  0  0  0  0  0
    0.0000   -2.7713    0.0000 H   0  0  0  0  0  0  0  0  0  0  0  0
    2.4000   -1.3856    0.0000 C   0  0  0  0  0  0  0  0  0  0  0  0
    3.2000   -2.7713    0.0000 H   0  0  0  0  0  0  0  0  0  0  0  0
  1  2  1  0  0  0  0
  1  3  1  0  0  0  0
  1  4  1  0  0  0  0
  4  5  1  0  0  0  0
  5  6  1  0  0  0  0
  5  7  2  0  0  0  0
  7  8  1  0  0  0  0
  7  9  1  0  0  0  0
  9 10  1  0  0  0  0
 10 11  1  0  0  0  0
 10 12  1  0  0  0  0
 10 13  1  0  0  0  0
  9 14  2  0  0  0  0
 14 15  1  0  0  0  0
 14 16  1  0  0  0  0
 16  4  2  0  0  0  0
 16 17  1  0  0  0  0
M  END
> <ChemID>
100625

> <source_casrn>
106-49-0

> <CAS>
106-49-0

> <SMILES>
Cc1ccc(N)cc1

> <NAME>
P-TOLUIDINE

> <preferred_name>
4-Methylaniline

> <iupac>
4-methylaniline

> <MPID>
25259

> <dsstox_substance_id>
DTXSID6021872

> <Canonical_QSARr>
Cc1ccc(N)cc1

> <InChI_Code_QSARr>
InChI=1S/C7H9N/c1-6-2-4-7(8)5-3-6/h2-5H,8H2,1H3

> <InChI Key_QSARr>
RZXMPPFPUUCRFN-UHFFFAOYSA-N

> <Salt_Solvent>
?

> <LogVP>
-0.5433

$$$$
100629
  -INDIGO-08031723152D

 20 19  0  0  0  0  0  0  0  0999 V2000
   -1.3856   -0.8000    0.0000 C   0  0  0  0  0  0  0  0  0  0  0  0
   -1.3856   -2.4000    0.0000 O   0  0  0  0  0  0  0  0  0  0  0  0
   -2.7713    0.0000    0.0000 O   0  0  0  0  0  0  0  0  0  0  0  0
   -4.1569   -0.8000    0.0000 C   0  0  0  0  0  0  0  0  0  0  0  0
   -5.5426   -1.6000    0.0000 H   0  0  0  0  0  0  0  0  0  0  0  0
   -5.5426    0.0000    0.0000 H   0  0  0  0  0  0  0  0  0  0  0  0
   -4.1569   -2.4000    0.0000 H   0  0  0  0  0  0  0  0  0  0  0  0
    0.0001    0.0000    0.0000 C   0  0  0  0  0  0  0  0  0  0  0  0
   -0.6123    1.4782    0.0000 H   0  0  0  0  0  0  0  0  0  0  0  0
    0.6122    1.4782    0.0000 H   0  0  0  0  0  0  0  0  0  0  0  0
    1.3856   -0.8000    0.0000 C   0  0  0  0  0  0  0  0  0  0  0  0
    1.9979   -2.2782    0.0000 H   0  0  0  0  0  0  0  0  0  0  0  0
    0.7734   -2.2782    0.0000 H   0  0  0  0  0  0  0  0  0  0  0  0
    2.7713    0.0000    0.0000 C   0  0  0  0  0  0  0  0  0  0  0  0
    2.7713    1.6000    0.0000 O   0  0  0  0  0  0  0  0  0  0  0  0
    4.1570   -0.8000    0.0000 O   0  0  0  0  0  0  0  0  0  0  0  0
    5.5425    0.0000    0.0000 C   0  0  0  0  0  0  0  0  0  0  0  0
    6.9282    0.8000    0.0000 H   0  0  0  0  0  0  0  0  0  0  0  0
    6.9282   -0.8000    0.0000 H   0  0  0  0  0  0  0  0  0  0  0  0
    5.5425    1.6000    0.0000 H   0  0  0  0  0  0  0  0  0  0  0  0
  1  2  2  0  0  0  0
  1  3  1  0  0  0  0
  3  4  1  0  0  0  0
  4  5  1  0  0  0  0
  4  6  1  0  0  0  0
  4  7  1  0  0  0  0
  1  8  1  0  0  0  0
  8  9  1  0  0  0  0
  8 10  1  0  0  0  0
  8 11  1  0  0  0  0
 11 12  1  0  0  0  0
 11 13  1  0  0  0  0
 11 14  1  0  0  0  0
 14 15  2  0  0  0  0
 14 16  1  0  0  0  0
 16 17  1  0  0  0  0
 17 18  1  0  0  0  0
 17 19  1  0  0  0  0
 17 20  1  0  0  0  0
M  END
> <ChemID>
100629

> <source_casrn>
106-65-0

> <CAS>
106-65-0

> <SMILES>
COC(=O)CCC(=O)OC

> <NAME>
DIMETHYL SUCCINATE

> <preferred_name>
Dimethyl succinate

> <iupac>
dimethyl butanedioate

> <MPID>
25263

> <dsstox_substance_id>
DTXSID5025152

> <Canonical_QSARr>
COC(=O)CCC(=O)OC

> <InChI_Code_QSARr>
InChI=1S/C6H10O4/c1-9-5(7)3-4-6(8)10-2/h3-4H2,1-2H3

> <InChI Key_QSARr>
MUXOBHXGJLMRAB-UHFFFAOYSA-N

> <Salt_Solvent>
?

> <LogVP>
-0.3872

$$$$
100633
  -INDIGO-08031723152D

 21 20  0  0  0  0  0  0  0  0999 V2000
   -1.3857    0.8000    0.0000 C   0  0  0  0  0  0  0  0  0  0  0  0
   -0.7734    2.2782    0.0000 H   0  0  0  0  0  0  0  0  0  0  0  0
   -1.9979    2.2782    0.0000 H   0  0  0  0  0  0  0  0  0  0  0  0
    0.0000    0.0000    0.0000 C   0  0  0  0  0  0  0  0  0  0  0  0
   -0.6123   -1.4782    0.0000 H   0  0  0  0  0  0  0  0  0  0  0  0
    0.6123   -1.4782    0.0000 H   0  0  0  0  0  0  0  0  0  0  0  0
    1.3857    0.8000    0.0000 O   0  0  0  0  0  0  0  0  0  0  0  0
    2.7713    0.0000    0.0000 C   0  0  0  0  0  0  0  0  0  0  0  0
    2.1590   -1.4782    0.0000 H   0  0  0  0  0  0  0  0  0  0  0  0
    3.3836   -1.4782    0.0000 H   0  0  0  0  0  0  0  0  0  0  0  0
    4.1570    0.8000    0.0000 C   0  0  0  0  0  0  0  0  0  0  0  0
    4.7691    2.2782    0.0000 H   0  0  0  0  0  0  0  0  0  0  0  0
    3.5447    2.2782    0.0000 H   0  0  0  0  0  0  0  0  0  0  0  0
    5.5426    0.0000    0.0000 O   0  0  0  0  0  0  0  0  0  0  0  0
    6.9283    0.8000    0.0000 C   0  0  0  0  0  0  0  0  0  0  0  0
    8.3138    0.0000    0.0000 O   0  0  0  0  0  0  0  0  0  0  0  0
    6.9283    2.4000    0.0000 Cl  0  0  0  0  0  0  0  0  0  0  0  0
   -2.7713    0.0000    0.0000 O   0  0  0  0  0  0  0  0  0  0  0  0
   -4.1568    0.8000    0.0000 C   0  0  0  0  0  0  0  0  0  0  0  0
   -5.5426    0.0000    0.0000 O   0  0  0  0  0  0  0  0  0  0  0  0
   -4.1568    2.4000    0.0000 Cl  0  0  0  0  0  0  0  0  0  0  0  0
  1  2  1  0  0  0  0
  1  3  1  0  0  0  0
  1  4  1  0  0  0  0
  4  5  1  0  0  0  0
  4  6  1  0  0  0  0
  4  7  1  0  0  0  0
  7  8  1  0  0  0  0
  8  9  1  0  0  0  0
  8 10  1  0  0  0  0
  8 11  1  0  0  0  0
 11 12  1  0  0  0  0
 11 13  1  0  0  0  0
 11 14  1  0  0  0  0
 14 15  1  0  0  0  0
 15 16  2  0  0  0  0
 15 17  1  0  0  0  0
  1 18  1  0  0  0  0
 18 19  1  0  0  0  0
 19 20  2  0  0  0  0
 19 21  1  0  0  0  0
M  END
> <ChemID>
100633

> <source_casrn>
106-75-2

> <CAS>
106-75-2

> <SMILES>
O=C(Cl)OCCOCCOC(=O)Cl

> <NAME>
Diethlylene glycol bis chloroformate

> <preferred_name>
Carbonochloridic acid, oxydi-2,1-ethanediyl ester

> <iupac>
oxydiethane-2,1-diyl dicarbonochloridate

> <MPID>
25267

> <dsstox_substance_id>
DTXSID2026739

> <Canonical_QSARr>
O=C(Cl)OCCOCCOC(=O)Cl

> <InChI_Code_QSARr>
InChI=1S/C6H8Cl2O5/c7-5(9)12-3-1-11-2-4-13-6(8)10/h1-4H2

> <InChI Key_QSARr>
XFSAZBKSWGOXRH-UHFFFAOYSA-N

> <Salt_Solvent>
?

> <LogVP>
-2.8297

$$$$
100637
  -INDIGO-08031723152D

 11 10  0  0  0  0  0  0  0  0999 V2000
    1.3856    2.4000    0.0000 Br  0  0  0  0  0  0  0  0  0  0  0  0
    1.3856    0.8000    0.0000 C   0  0  0  0  0  0  0  0  0  0  0  0
    2.7713    1.6000    0.0000 H   0  0  0  0  0  0  0  0  0  0  0  0
    2.7713    0.0000    0.0000 H   0  0  0  0  0  0  0  0  0  0  0  0
    0.0000    0.0000    0.0000 C   0  0  0  0  0  0  0  0  0  0  0  0
    0.6123   -1.4782    0.0000 H   0  0  0  0  0  0  0  0  0  0  0  0
   -0.6123   -1.4782    0.0000 H   0  0  0  0  0  0  0  0  0  0  0  0
   -1.3856    0.8000    0.0000 C   0  0  0  0  0  0  0  0  0  0  0  0
   -2.7713    1.6000    0.0000 H   0  0  0  0  0  0  0  0  0  0  0  0
   -2.7713    0.0000    0.0000 H   0  0  0  0  0  0  0  0  0  0  0  0
   -1.3856    2.4000    0.0000 H   0  0  0  0  0  0  0  0  0  0  0  0
  1  2  1  0  0  0  0
  2  3  1  0  0  0  0
  2  4  1  0  0  0  0
  2  5  1  0  0  0  0
  5  6  1  0  0  0  0
  5  7  1  0  0  0  0
  5  8  1  0  0  0  0
  8  9  1  0  0  0  0
  8 10  1  0  0  0  0
  8 11  1  0  0  0  0
M  END
> <ChemID>
100637

> <source_casrn>
106-94-5

> <CAS>
106-94-5

> <SMILES>
CCCBr

> <NAME>
1-BROMOPROPANE

> <preferred_name>
1-Bromopropane

> <iupac>
1-bromopropane

> <MPID>
25271

> <dsstox_substance_id>
DTXSID6021874

> <Canonical_QSARr>
CCCBr

> <InChI_Code_QSARr>
InChI=1S/C3H7Br/c1-2-3-4/h2-3H2,1H3

> <InChI Key_QSARr>
CYNYIHKIEHGYOZ-UHFFFAOYSA-N

> <Salt_Solvent>
?

> <LogVP>
2.0445

$$$$
100641
  -INDIGO-08031723152D

 10  9  0  0  0  0  0  0  0  0999 V2000
    2.7713   -1.6000    0.0000 C   0  0  0  0  0  0  0  0  0  0  0  0
    4.1569   -2.4000    0.0000 H   0  0  0  0  0  0  0  0  0  0  0  0
    1.3856   -0.8000    0.0000 C   0  0  0  0  0  0  0  0  0  0  0  0
    0.0000    0.0000    0.0000 C   0  0  0  0  0  0  0  0  0  0  0  0
   -0.6123    1.4782    0.0000 H   0  0  0  0  0  0  0  0  0  0  0  0
    0.6123    1.4782    0.0000 H   0  0  0  0  0  0  0  0  0  0  0  0
   -1.3856   -0.8000    0.0000 C   0  0  0  0  0  0  0  0  0  0  0  0
   -2.7713   -1.6000    0.0000 H   0  0  0  0  0  0  0  0  0  0  0  0
   -2.7713    0.0000    0.0000 H   0  0  0  0  0  0  0  0  0  0  0  0
   -1.3856   -2.4000    0.0000 H   0  0  0  0  0  0  0  0  0  0  0  0
  1  2  1  0  0  0  0
  1  3  3  0  0  0  0
  3  4  1  0  0  0  0
  4  5  1  0  0  0  0
  4  6  1  0  0  0  0
  4  7  1  0  0  0  0
  7  8  1  0  0  0  0
  7  9  1  0  0  0  0
  7 10  1  0  0  0  0
M  END
> <ChemID>
100641

> <source_casrn>
107-00-6

> <CAS>
107-00-6

> <SMILES>
CCC#C

> <NAME>
1-BUTYNE

> <preferred_name>
1-Butyne

> <iupac>
but-1-yne

> <MPID>
25275

> <dsstox_substance_id>
DTXSID4029141

> <Canonical_QSARr>
CCC#C

> <InChI_Code_QSARr>
InChI=1S/C4H6/c1-3-4-2/h1H,4H2,2H3

> <InChI Key_QSARr>
KDKYADYSIPSCCQ-UHFFFAOYSA-N

> <Salt_Solvent>
?

> <LogVP>
3.1504

$$$$
100646
  -INDIGO-08031723152D

  9  8  0  0  0  0  0  0  0  0999 V2000
    2.7713    0.0000    0.0000 C   0  0  0  0  0  0  0  0  0  0  0  0
    4.1569   -0.8000    0.0000 H   0  0  0  0  0  0  0  0  0  0  0  0
    2.7713    1.6000    0.0000 H   0  0  0  0  0  0  0  0  0  0  0  0
    1.3857   -0.8000    0.0000 C   0  0  0  0  0  0  0  0  0  0  0  0
    1.3857   -2.4000    0.0000 H   0  0  0  0  0  0  0  0  0  0  0  0
    0.0000    0.0000    0.0000 C   0  0  0  0  0  0  0  0  0  0  0  0
   -1.3856    0.8000    0.0000 H   0  0  0  0  0  0  0  0  0  0  0  0
    0.0000    1.6000    0.0000 H   0  0  0  0  0  0  0  0  0  0  0  0
   -1.3856   -0.8000    0.0000 Cl  0  0  0  0  0  0  0  0  0  0  0  0
  1  2  1  0  0  0  0
  1  3  1  0  0  0  0
  1  4  2  0  0  0  0
  4  5  1  0  0  0  0
  4  6  1  0  0  0  0
  6  7  1  0  0  0  0
  6  8  1  0  0  0  0
  6  9  1  0  0  0  0
M  END
> <ChemID>
100646

> <source_casrn>
107-05-1

> <CAS>
107-05-1

> <SMILES>
C=CCCl

> <NAME>
3-CHLOROPROPYLENE

> <preferred_name>
Allyl chloride

> <iupac>
3-chloroprop-1-ene

> <MPID>
25279

> <dsstox_substance_id>
DTXSID4039231

> <Canonical_QSARr>
C=CCCl

> <InChI_Code_QSARr>
InChI=1S/C3H5Cl/c1-2-3-4/h2H,1,3H2

> <InChI Key_QSARr>
OSDWBNJEKMUWAV-UHFFFAOYSA-N

> <Salt_Solvent>
?

> <LogVP>
2.5657

$$$$
100650
  -INDIGO-08031723152D

 13 12  0  0  0  0  0  0  0  0999 V2000
    1.3856    0.8000    0.0000 C   0  0  0  0  0  0  0  0  0  0  0  0
    2.7713    1.6000    0.0000 H   0  0  0  0  0  0  0  0  0  0  0  0
    2.7713    0.0000    0.0000 H   0  0  0  0  0  0  0  0  0  0  0  0
    1.3856    2.4000    0.0000 H   0  0  0  0  0  0  0  0  0  0  0  0
    0.0000    0.0000    0.0000 C   0  0  0  0  0  0  0  0  0  0  0  0
   -0.6123   -1.4782    0.0000 H   0  0  0  0  0  0  0  0  0  0  0  0
    0.6123   -1.4782    0.0000 H   0  0  0  0  0  0  0  0  0  0  0  0
   -1.3856    0.8000    0.0000 C   0  0  0  0  0  0  0  0  0  0  0  0
   -0.7733    2.2782    0.0000 H   0  0  0  0  0  0  0  0  0  0  0  0
   -1.9980    2.2782    0.0000 H   0  0  0  0  0  0  0  0  0  0  0  0
   -2.7713    0.0000    0.0000 N   0  0  0  0  0  0  0  0  0  0  0  0
   -4.1569    0.8000    0.0000 H   0  0  0  0  0  0  0  0  0  0  0  0
   -2.7713   -1.6000    0.0000 H   0  0  0  0  0  0  0  0  0  0  0  0
  1  2  1  0  0  0  0
  1  3  1  0  0  0  0
  1  4  1  0  0  0  0
  1  5  1  0  0  0  0
  5  6  1  0  0  0  0
  5  7  1  0  0  0  0
  5  8  1  0  0  0  0
  8  9  1  0  0  0  0
  8 10  1  0  0  0  0
  8 11  1  0  0  0  0
 11 12  1  0  0  0  0
 11 13  1  0  0  0  0
M  END
> <ChemID>
100650

> <source_casrn>
107-10-8

> <CAS>
107-10-8

> <SMILES>
CCCN

> <NAME>
PROPYLAMINE

> <preferred_name>
Propylamine

> <iupac>
propan-1-amine

> <MPID>
25283

> <dsstox_substance_id>
DTXSID6021878

> <Canonical_QSARr>
CCCN

> <InChI_Code_QSARr>
InChI=1S/C3H9N/c1-2-3-4/h2-4H2,1H3

> <InChI Key_QSARr>
WGYKZJWCGVVSQN-UHFFFAOYSA-N

> <Salt_Solvent>
?

> <LogVP>
2.4914

$$$$
100654
  -INDIGO-08031723152D

  6  5  0  0  0  0  0  0  0  0999 V2000
   -3.2000    0.0000    0.0000 N   0  0  0  0  0  0  0  0  0  0  0  0
   -1.6000    0.0000    0.0000 C   0  0  0  0  0  0  0  0  0  0  0  0
    0.0000    0.0000    0.0000 C   0  0  0  0  0  0  0  0  0  0  0  0
    1.6000   -0.0000    0.0000 H   0  0  0  0  0  0  0  0  0  0  0  0
    0.8000    1.3856    0.0000 H   0  0  0  0  0  0  0  0  0  0  0  0
    0.8000   -1.3856    0.0000 Cl  0  0  0  0  0  0  0  0  0  0  0  0
  1  2  3  0  0  0  0
  2  3  1  0  0  0  0
  3  4  1  0  0  0  0
  3  5  1  0  0  0  0
  3  6  1  0  0  0  0
M  END
> <ChemID>
100654

> <source_casrn>
107-14-2

> <CAS>
107-14-2

> <SMILES>
N#CCCl

> <NAME>
CHLOROACETONITRILE

> <preferred_name>
Chloroacetonitrile

> <iupac>
chloroacetonitrile

> <MPID>
25287

> <dsstox_substance_id>
DTXSID7021524

> <Canonical_QSARr>
N#CCCl

> <InChI_Code_QSARr>
InChI=1S/C2H2ClN/c3-1-2-4/h1H2

> <InChI Key_QSARr>
RENMDAKOXSCIGH-UHFFFAOYSA-N

> <Salt_Solvent>
?

> <LogVP>
1.1761

$$$$
100658
  -INDIGO-08031723152D

  7  6  0  0  0  0  0  0  0  0999 V2000
    2.4000   -1.3856    0.0000 O   0  0  0  0  0  0  0  0  0  0  0  0
    1.6000    0.0000    0.0000 C   0  0  0  0  0  0  0  0  0  0  0  0
    2.4000    1.3856    0.0000 H   0  0  0  0  0  0  0  0  0  0  0  0
    0.0000    0.0000    0.0000 C   0  0  0  0  0  0  0  0  0  0  0  0
   -1.6000    0.0000    0.0000 H   0  0  0  0  0  0  0  0  0  0  0  0
   -0.8000    1.3856    0.0000 H   0  0  0  0  0  0  0  0  0  0  0  0
   -0.8000   -1.3856    0.0000 Cl  0  0  0  0  0  0  0  0  0  0  0  0
  1  2  2  0  0  0  0
  2  3  1  0  0  0  0
  2  4  1  0  0  0  0
  4  5  1  0  0  0  0
  4  6  1  0  0  0  0
  4  7  1  0  0  0  0
M  END
> <ChemID>
100658

> <source_casrn>
107-20-0

> <CAS>
107-20-0

> <SMILES>
O=CCCl

> <NAME>
CHLOROACETALDEHYDE

> <preferred_name>
Chloroacetaldehyde

> <iupac>
chloroacetaldehyde

> <MPID>
25291

> <dsstox_substance_id>
DTXSID4020292

> <Canonical_QSARr>
O=CCCl

> <InChI_Code_QSARr>
InChI=1S/C2H3ClO/c3-1-2-4/h2H,1H2

> <InChI Key_QSARr>
QSKPIOLLBIHNAC-UHFFFAOYSA-N

> <Salt_Solvent>
?

> <LogVP>
1.808

$$$$
100662
  -INDIGO-08031723152D

  9  8  0  0  0  0  0  0  0  0999 V2000
   -1.3856   -0.8000    0.0000 Cl  0  0  0  0  0  0  0  0  0  0  0  0
    0.0000    0.0000    0.0000 C   0  0  0  0  0  0  0  0  0  0  0  0
   -1.3856    0.8000    0.0000 H   0  0  0  0  0  0  0  0  0  0  0  0
    0.0000    1.6000    0.0000 H   0  0  0  0  0  0  0  0  0  0  0  0
    1.3856   -0.8000    0.0000 O   0  0  0  0  0  0  0  0  0  0  0  0
    2.7713    0.0000    0.0000 C   0  0  0  0  0  0  0  0  0  0  0  0
    4.1569    0.8000    0.0000 H   0  0  0  0  0  0  0  0  0  0  0  0
    4.1569   -0.8000    0.0000 H   0  0  0  0  0  0  0  0  0  0  0  0
    2.7713    1.6000    0.0000 H   0  0  0  0  0  0  0  0  0  0  0  0
  1  2  1  0  0  0  0
  2  3  1  0  0  0  0
  2  4  1  0  0  0  0
  2  5  1  0  0  0  0
  5  6  1  0  0  0  0
  6  7  1  0  0  0  0
  6  8  1  0  0  0  0
  6  9  1  0  0  0  0
M  END
> <ChemID>
100662

> <source_casrn>
107-30-2

> <CAS>
107-30-2

> <SMILES>
COCCl

> <NAME>
CHLOROMETHOXYMETHANE

> <preferred_name>
Chloromethyl methyl ether

> <iupac>
chloro(methoxy)methane

> <MPID>
25295

> <dsstox_substance_id>
DTXSID6020307

> <Canonical_QSARr>
COCCl

> <InChI_Code_QSARr>
InChI=1S/C2H5ClO/c1-4-2-3/h2H2,1H3

> <InChI Key_QSARr>
XJUZRXYOEPSWMB-UHFFFAOYSA-N

> <Salt_Solvent>
?

> <LogVP>
1.4771

$$$$
100666
  -INDIGO-08031723152D

 24 23  0  0  0  0  0  0  0  0999 V2000
    2.7712    1.6000    0.0000 C   0  0  0  0  0  0  0  0  0  0  0  0
    4.1570    2.4000    0.0000 H   0  0  0  0  0  0  0  0  0  0  0  0
    2.7712    3.2000    0.0000 H   0  0  0  0  0  0  0  0  0  0  0  0
    4.1570    0.8000    0.0000 H   0  0  0  0  0  0  0  0  0  0  0  0
    2.7712    0.0000    0.0000 C   0  0  0  0  0  0  0  0  0  0  0  0
    1.3856   -0.8000    0.0000 C   0  0  0  0  0  0  0  0  0  0  0  0
    1.3856   -2.4000    0.0000 H   0  0  0  0  0  0  0  0  0  0  0  0
    0.0000    0.0000    0.0000 C   0  0  0  0  0  0  0  0  0  0  0  0
   -1.5035    0.5473    0.0000 C   0  0  0  0  0  0  0  0  0  0  0  0
   -3.0070    1.0945    0.0000 H   0  0  0  0  0  0  0  0  0  0  0  0
   -2.7291   -0.4813    0.0000 H   0  0  0  0  0  0  0  0  0  0  0  0
   -1.7814    2.1229    0.0000 H   0  0  0  0  0  0  0  0  0  0  0  0
    0.8000    1.3856    0.0000 C   0  0  0  0  0  0  0  0  0  0  0  0
    1.6000    2.7713    0.0000 H   0  0  0  0  0  0  0  0  0  0  0  0
    0.0000    2.7713    0.0000 H   0  0  0  0  0  0  0  0  0  0  0  0
   -0.8001    1.3856    0.0000 H   0  0  0  0  0  0  0  0  0  0  0  0
   -0.8001   -1.3857    0.0000 C   0  0  0  0  0  0  0  0  0  0  0  0
   -1.6000   -2.7713    0.0000 H   0  0  0  0  0  0  0  0  0  0  0  0
    0.0000   -2.7713    0.0000 H   0  0  0  0  0  0  0  0  0  0  0  0
   -2.4000   -1.3857    0.0000 H   0  0  0  0  0  0  0  0  0  0  0  0
    4.1570   -0.8000    0.0000 C   0  0  0  0  0  0  0  0  0  0  0  0
    5.5426   -1.6000    0.0000 H   0  0  0  0  0  0  0  0  0  0  0  0
    5.5426    0.0000    0.0000 H   0  0  0  0  0  0  0  0  0  0  0  0
    4.1570   -2.4000    0.0000 H   0  0  0  0  0  0  0  0  0  0  0  0
  1  2  1  0  0  0  0
  1  3  1  0  0  0  0
  1  4  1  0  0  0  0
  1  5  1  0  0  0  0
  5  6  2  0  0  0  0
  6  7  1  0  0  0  0
  6  8  1  0  0  0  0
  8  9  1  0  0  0  0
  9 10  1  0  0  0  0
  9 11  1  0  0  0  0
  9 12  1  0  0  0  0
  8 13  1  0  0  0  0
 13 14  1  0  0  0  0
 13 15  1  0  0  0  0
 13 16  1  0  0  0  0
  8 17  1  0  0  0  0
 17 18  1  0  0  0  0
 17 19  1  0  0  0  0
 17 20  1  0  0  0  0
  5 21  1  0  0  0  0
 21 22  1  0  0  0  0
 21 23  1  0  0  0  0
 21 24  1  0  0  0  0
M  END
> <ChemID>
100666

> <source_casrn>
107-40-4

> <CAS>
107-40-4

> <SMILES>
CC(C)=CC(C)(C)C

> <NAME>
2,4,4-TRIMETHYL-2-PENTENE

> <preferred_name>
2,4,4-Trimethyl-2-pentene

> <iupac>
2,4,4-trimethylpent-2-ene

> <MPID>
25299

> <dsstox_substance_id>
DTXSID9026766

> <Canonical_QSARr>
CC(C)=CC(C)(C)C

> <InChI_Code_QSARr>
InChI=1S/C8H16/c1-7(2)6-8(3,4)5/h6H,1-5H3

> <InChI Key_QSARr>
LAAVYEUJEMRIGF-UHFFFAOYSA-N

> <Salt_Solvent>
?

> <LogVP>
1.5551

$$$$
100670
  -INDIGO-08031723152D

 37 36  0  0  0  0  0  0  0  0999 V2000
    1.3857    0.8000    0.0000 O   0  0  0  0  0  0  0  0  0  0  0  0
    2.7712    0.0001    0.0000 P   0  0  0  0  0  0  0  0  0  0  0  0
    2.7712   -1.6000    0.0000 O   0  0  0  0  0  0  0  0  0  0  0  0
    4.1569   -0.8000    0.0000 O   0  0  0  0  0  0  0  0  0  0  0  0
    5.5426    0.0001    0.0000 C   0  0  0  0  0  0  0  0  0  0  0  0
    4.9303    1.4783    0.0000 H   0  0  0  0  0  0  0  0  0  0  0  0
    6.1548    1.4783    0.0000 H   0  0  0  0  0  0  0  0  0  0  0  0
    6.9281   -0.8000    0.0000 C   0  0  0  0  0  0  0  0  0  0  0  0
    8.3138   -1.6000    0.0000 H   0  0  0  0  0  0  0  0  0  0  0  0
    8.3138    0.0001    0.0000 H   0  0  0  0  0  0  0  0  0  0  0  0
    6.9281   -2.4000    0.0000 H   0  0  0  0  0  0  0  0  0  0  0  0
    4.1569    0.8000    0.0000 O   0  0  0  0  0  0  0  0  0  0  0  0
    4.1569    2.4000    0.0000 C   0  0  0  0  0  0  0  0  0  0  0  0
    2.5707    2.6089    0.0000 H   0  0  0  0  0  0  0  0  0  0  0  0
    3.1828    3.6694    0.0000 H   0  0  0  0  0  0  0  0  0  0  0  0
    5.5426    3.2001    0.0000 C   0  0  0  0  0  0  0  0  0  0  0  0
    6.9281    4.0000    0.0000 H   0  0  0  0  0  0  0  0  0  0  0  0
    5.5426    4.8000    0.0000 H   0  0  0  0  0  0  0  0  0  0  0  0
    6.9281    2.4000    0.0000 H   0  0  0  0  0  0  0  0  0  0  0  0
    0.0000    0.0001    0.0000 P   0  0  0  0  0  0  0  0  0  0  0  0
    0.0000   -1.6000    0.0000 O   0  0  0  0  0  0  0  0  0  0  0  0
   -1.3857   -0.8000    0.0000 O   0  0  0  0  0  0  0  0  0  0  0  0
   -1.3857   -2.4000    0.0000 C   0  0  0  0  0  0  0  0  0  0  0  0
    0.2008   -2.6089    0.0000 H   0  0  0  0  0  0  0  0  0  0  0  0
   -0.4116   -3.6694    0.0000 H   0  0  0  0  0  0  0  0  0  0  0  0
   -2.7712   -3.2001    0.0000 C   0  0  0  0  0  0  0  0  0  0  0  0
   -4.1569   -4.0000    0.0000 H   0  0  0  0  0  0  0  0  0  0  0  0
   -2.7712   -4.8000    0.0000 H   0  0  0  0  0  0  0  0  0  0  0  0
   -4.1569   -2.4000    0.0000 H   0  0  0  0  0  0  0  0  0  0  0  0
   -1.3857    0.8000    0.0000 O   0  0  0  0  0  0  0  0  0  0  0  0
   -1.3857    2.4000    0.0000 C   0  0  0  0  0  0  0  0  0  0  0  0
   -0.4116    3.6694    0.0000 H   0  0  0  0  0  0  0  0  0  0  0  0
    0.2008    2.6089    0.0000 H   0  0  0  0  0  0  0  0  0  0  0  0
   -2.7712    3.2001    0.0000 C   0  0  0  0  0  0  0  0  0  0  0  0
   -4.1569    4.0000    0.0000 H   0  0  0  0  0  0  0  0  0  0  0  0
   -2.7712    4.8000    0.0000 H   0  0  0  0  0  0  0  0  0  0  0  0
   -4.1569    2.4000    0.0000 H   0  0  0  0  0  0  0  0  0  0  0  0
  1  2  1  0  0  0  0
  2  3  2  0  0  0  0
  2  4  1  0  0  0  0
  4  5  1  0  0  0  0
  5  6  1  0  0  0  0
  5  7  1  0  0  0  0
  5  8  1  0  0  0  0
  8  9  1  0  0  0  0
  8 10  1  0  0  0  0
  8 11  1  0  0  0  0
  2 12  1  0  0  0  0
 12 13  1  0  0  0  0
 13 14  1  0  0  0  0
 13 15  1  0  0  0  0
 13 16  1  0  0  0  0
 16 17  1  0  0  0  0
 16 18  1  0  0  0  0
 16 19  1  0  0  0  0
  1 20  1  0  0  0  0
 20 21  2  0  0  0  0
 20 22  1  0  0  0  0
 22 23  1  0  0  0  0
 23 24  1  0  0  0  0
 23 25  1  0  0  0  0
 23 26  1  0  0  0  0
 26 27  1  0  0  0  0
 26 28  1  0  0  0  0
 26 29  1  0  0  0  0
 20 30  1  0  0  0  0
 30 31  1  0  0  0  0
 31 32  1  0  0  0  0
 31 33  1  0  0  0  0
 31 34  1  0  0  0  0
 34 35  1  0  0  0  0
 34 36  1  0  0  0  0
 34 37  1  0  0  0  0
M  END
> <ChemID>
100670

> <source_casrn>
107-49-3

> <CAS>
107-49-3

> <SMILES>
CCOP(=O)(OP(=O)(OCC)OCC)OCC

> <NAME>
TETRAETHYL PYROPHOSPHATE

> <preferred_name>
Tetraethyl pyrophosphate

> <iupac>
tetraethyl diphosphate

> <MPID>
25303

> <dsstox_substance_id>
DTXSID3034957

> <Canonical_QSARr>
CCOP(=O)(OP(=O)(OCC)OCC)OCC

> <InChI_Code_QSARr>
InChI=1S/C8H20O7P2/c1-5-11-16(9,12-6-2)15-17(10,13-7-3)14-8-4/h5-8H2,1-4H3

> <InChI Key_QSARr>
IDCBOTIENDVCBQ-UHFFFAOYSA-N

> <Salt_Solvent>
?

> <LogVP>
-3.585

$$$$
100674
  -INDIGO-08031723152D

 23 22  0  0  0  0  0  0  0  0999 V2000
   -1.3856    0.8000    0.0000 C   0  0  0  0  0  0  0  0  0  0  0  0
   -0.7733    2.2782    0.0000 H   0  0  0  0  0  0  0  0  0  0  0  0
   -1.9979    2.2782    0.0000 H   0  0  0  0  0  0  0  0  0  0  0  0
   -2.7713   -0.0000    0.0000 C   0  0  0  0  0  0  0  0  0  0  0  0
   -4.1569    0.8000    0.0000 C   0  0  0  0  0  0  0  0  0  0  0  0
   -5.5426    1.6000    0.0000 H   0  0  0  0  0  0  0  0  0  0  0  0
   -5.5426   -0.0000    0.0000 H   0  0  0  0  0  0  0  0  0  0  0  0
   -4.1569    2.4000    0.0000 H   0  0  0  0  0  0  0  0  0  0  0  0
   -2.7713   -1.6000    0.0000 O   0  0  0  0  0  0  0  0  0  0  0  0
    0.0000   -0.0000    0.0000 C   0  0  0  0  0  0  0  0  0  0  0  0
    1.3857   -0.8001    0.0000 C   0  0  0  0  0  0  0  0  0  0  0  0
    2.7713   -1.6000    0.0000 H   0  0  0  0  0  0  0  0  0  0  0  0
    2.7713   -0.0000    0.0000 H   0  0  0  0  0  0  0  0  0  0  0  0
    1.3857   -2.4000    0.0000 H   0  0  0  0  0  0  0  0  0  0  0  0
    0.8000    1.3856    0.0000 C   0  0  0  0  0  0  0  0  0  0  0  0
    1.6000    2.7713    0.0000 H   0  0  0  0  0  0  0  0  0  0  0  0
    0.2527    2.8891    0.0000 H   0  0  0  0  0  0  0  0  0  0  0  0
    2.4000    1.3856    0.0000 H   0  0  0  0  0  0  0  0  0  0  0  0
   -0.8000   -1.3857    0.0000 O   0  0  0  0  0  0  0  0  0  0  0  0
    0.0000   -2.7713    0.0000 C   0  0  0  0  0  0  0  0  0  0  0  0
   -0.8000   -4.1569    0.0000 H   0  0  0  0  0  0  0  0  0  0  0  0
    0.8000   -4.1569    0.0000 H   0  0  0  0  0  0  0  0  0  0  0  0
   -1.6000   -2.7713    0.0000 H   0  0  0  0  0  0  0  0  0  0  0  0
  1  2  1  0  0  0  0
  1  3  1  0  0  0  0
  1  4  1  0  0  0  0
  4  5  1  0  0  0  0
  5  6  1  0  0  0  0
  5  7  1  0  0  0  0
  5  8  1  0  0  0  0
  4  9  2  0  0  0  0
  1 10  1  0  0  0  0
 10 11  1  0  0  0  0
 11 12  1  0  0  0  0
 11 13  1  0  0  0  0
 11 14  1  0  0  0  0
 10 15  1  0  0  0  0
 15 16  1  0  0  0  0
 15 17  1  0  0  0  0
 15 18  1  0  0  0  0
 10 19  1  0  0  0  0
 19 20  1  0  0  0  0
 20 21  1  0  0  0  0
 20 22  1  0  0  0  0
 20 23  1  0  0  0  0
M  END
> <ChemID>
100674

> <source_casrn>
107-70-0

> <CAS>
107-70-0

> <SMILES>
COC(C)(C)CC(C)=O

> <NAME>
4-METHOXY-4-METHYL-2-PENTANONE

> <preferred_name>
4-Methoxy-4-methyl-2-pentanone

> <iupac>
4-methoxy-4-methylpentan-2-one

> <MPID>
25307

> <dsstox_substance_id>
DTXSID2025557

> <Canonical_QSARr>
COC(C)(C)CC(C)=O

> <InChI_Code_QSARr>
InChI=1S/C7H14O2/c1-6(8)5-7(2,3)9-4/h5H2,1-4H3

> <InChI Key_QSARr>
KOKPBCHLPVDQTK-UHFFFAOYSA-N

> <Salt_Solvent>
?

> <LogVP>
0.3424

$$$$
100678
  -INDIGO-08031723152D

 16 15  0  0  0  0  0  0  0  0999 V2000
    2.7713    0.0000    0.0000 C   0  0  0  0  0  0  0  0  0  0  0  0
    4.1569   -0.8000    0.0000 H   0  0  0  0  0  0  0  0  0  0  0  0
    4.1569    0.8000    0.0000 H   0  0  0  0  0  0  0  0  0  0  0  0
    2.7713   -1.6000    0.0000 H   0  0  0  0  0  0  0  0  0  0  0  0
    1.3856    0.8000    0.0000 C   0  0  0  0  0  0  0  0  0  0  0  0
    0.7734    2.2782    0.0000 H   0  0  0  0  0  0  0  0  0  0  0  0
    1.9979    2.2782    0.0000 H   0  0  0  0  0  0  0  0  0  0  0  0
    0.0001    0.0000    0.0000 C   0  0  0  0  0  0  0  0  0  0  0  0
    0.6123   -1.4782    0.0000 H   0  0  0  0  0  0  0  0  0  0  0  0
   -0.6123   -1.4782    0.0000 H   0  0  0  0  0  0  0  0  0  0  0  0
   -1.3856    0.8000    0.0000 C   0  0  0  0  0  0  0  0  0  0  0  0
   -1.3856    2.4000    0.0000 O   0  0  0  0  0  0  0  0  0  0  0  0
   -2.7713    0.0000    0.0000 C   0  0  0  0  0  0  0  0  0  0  0  0
   -4.1569   -0.8000    0.0000 H   0  0  0  0  0  0  0  0  0  0  0  0
   -4.1569    0.8000    0.0000 H   0  0  0  0  0  0  0  0  0  0  0  0
   -2.7713   -1.6000    0.0000 H   0  0  0  0  0  0  0  0  0  0  0  0
  1  2  1  0  0  0  0
  1  3  1  0  0  0  0
  1  4  1  0  0  0  0
  1  5  1  0  0  0  0
  5  6  1  0  0  0  0
  5  7  1  0  0  0  0
  5  8  1  0  0  0  0
  8  9  1  0  0  0  0
  8 10  1  0  0  0  0
  8 11  1  0  0  0  0
 11 12  2  0  0  0  0
 11 13  1  0  0  0  0
 13 14  1  0  0  0  0
 13 15  1  0  0  0  0
 13 16  1  0  0  0  0
M  END
> <ChemID>
100678

> <source_casrn>
107-87-9

> <CAS>
107-87-9

> <SMILES>
CCCC(C)=O

> <NAME>
2-PENTANONE

> <preferred_name>
2-Pentanone

> <iupac>
pentan-2-one

> <MPID>
25311

> <dsstox_substance_id>
DTXSID0021888

> <Canonical_QSARr>
CCCC(C)=O

> <InChI_Code_QSARr>
InChI=1S/C5H10O/c1-3-4-5(2)6/h3-4H2,1-2H3

> <InChI Key_QSARr>
XNLICIUVMPYHGG-UHFFFAOYSA-N

> <Salt_Solvent>
?

> <LogVP>
1.549

$$$$
100682
  -INDIGO-08031723152D

 12 11  0  0  0  0  0  0  0  0999 V2000
   -1.3856    0.8000    0.0000 C   0  0  0  0  0  0  0  0  0  0  0  0
    0.0001    0.0000    0.0000 C   0  0  0  0  0  0  0  0  0  0  0  0
    0.6123   -1.4782    0.0000 H   0  0  0  0  0  0  0  0  0  0  0  0
   -0.6123   -1.4782    0.0000 H   0  0  0  0  0  0  0  0  0  0  0  0
    1.3856    0.8000    0.0000 C   0  0  0  0  0  0  0  0  0  0  0  0
    0.7734    2.2782    0.0000 H   0  0  0  0  0  0  0  0  0  0  0  0
    1.9979    2.2782    0.0000 H   0  0  0  0  0  0  0  0  0  0  0  0
    2.7713    0.0000    0.0000 S   0  0  0  0  0  0  0  0  0  0  0  0
    4.1569    0.8000    0.0000 H   0  0  0  0  0  0  0  0  0  0  0  0
   -2.7713    0.0000    0.0000 O   0  0  0  0  0  0  0  0  0  0  0  0
   -4.1569    0.8000    0.0000 H   0  0  0  0  0  0  0  0  0  0  0  0
   -1.3856    2.4000    0.0000 O   0  0  0  0  0  0  0  0  0  0  0  0
  1  2  1  0  0  0  0
  2  3  1  0  0  0  0
  2  4  1  0  0  0  0
  2  5  1  0  0  0  0
  5  6  1  0  0  0  0
  5  7  1  0  0  0  0
  5  8  1  0  0  0  0
  8  9  1  0  0  0  0
  1 10  1  0  0  0  0
 10 11  1  0  0  0  0
  1 12  2  0  0  0  0
M  END
> <ChemID>
100682

> <source_casrn>
107-96-0

> <CAS>
107-96-0

> <SMILES>
OC(=O)CCS

> <NAME>
3-MERCAPTOPROPIONIC ACID

> <preferred_name>
3-Mercaptopropanoic acid

> <iupac>
3-sulfanylpropanoic acid

> <MPID>
25315

> <dsstox_substance_id>
DTXSID8026775

> <Canonical_QSARr>
OC(=O)CCS

> <InChI_Code_QSARr>
InChI=1S/C3H6O2S/c4-3(5)1-2-6/h6H,1-2H2,(H,4,5)

> <InChI Key_QSARr>
DKIDEFUBRARXTE-UHFFFAOYSA-N

> <Salt_Solvent>
?

> <LogVP>
-1.3024

$$$$
100686
  -INDIGO-08031723152D

 12 11  0  0  0  0  0  0  0  0999 V2000
    0.0001    0.0000    0.0000 C   0  0  0  0  0  0  0  0  0  0  0  0
    1.3856    0.8000    0.0000 H   0  0  0  0  0  0  0  0  0  0  0  0
    0.0001    1.6000    0.0000 H   0  0  0  0  0  0  0  0  0  0  0  0
    1.3856   -0.8000    0.0000 H   0  0  0  0  0  0  0  0  0  0  0  0
   -1.3856   -0.8000    0.0000 C   0  0  0  0  0  0  0  0  0  0  0  0
   -1.3856   -2.4000    0.0000 O   0  0  0  0  0  0  0  0  0  0  0  0
   -2.7712    0.0000    0.0000 O   0  0  0  0  0  0  0  0  0  0  0  0
   -4.1569   -0.8000    0.0000 C   0  0  0  0  0  0  0  0  0  0  0  0
   -4.1569   -2.4000    0.0000 H   0  0  0  0  0  0  0  0  0  0  0  0
   -5.5425    0.0000    0.0000 C   0  0  0  0  0  0  0  0  0  0  0  0
   -6.9282   -0.8000    0.0000 H   0  0  0  0  0  0  0  0  0  0  0  0
   -5.5425    1.6000    0.0000 H   0  0  0  0  0  0  0  0  0  0  0  0
  1  2  1  0  0  0  0
  1  3  1  0  0  0  0
  1  4  1  0  0  0  0
  1  5  1  0  0  0  0
  5  6  2  0  0  0  0
  5  7  1  0  0  0  0
  7  8  1  0  0  0  0
  8  9  1  0  0  0  0
  8 10  2  0  0  0  0
 10 11  1  0  0  0  0
 10 12  1  0  0  0  0
M  END
> <ChemID>
100686

> <source_casrn>
108-05-4

> <CAS>
108-05-4

> <SMILES>
CC(=O)OC=C

> <NAME>
VINYL ACETATE

> <preferred_name>
Vinyl acetate

> <iupac>
ethenyl acetate

> <MPID>
25319

> <dsstox_substance_id>
DTXSID3021431

> <Canonical_QSARr>
CC(=O)OC=C

> <InChI_Code_QSARr>
InChI=1S/C4H6O2/c1-3-6-4(2)5/h3H,1H2,2H3

> <InChI Key_QSARr>
XTXRWKRVRITETP-UHFFFAOYSA-N

> <Salt_Solvent>
?

> <LogVP>
1.955

$$$$
100690
  -INDIGO-08031723152D

 22 21  0  0  0  0  0  0  0  0999 V2000
    1.3856    0.8000    0.0000 N   0  0  0  0  0  0  0  0  0  0  0  0
    1.3856    2.4000    0.0000 H   0  0  0  0  0  0  0  0  0  0  0  0
    2.7713    0.0000    0.0000 C   0  0  0  0  0  0  0  0  0  0  0  0
    1.9713   -1.3856    0.0000 H   0  0  0  0  0  0  0  0  0  0  0  0
    4.1569   -0.8000    0.0000 C   0  0  0  0  0  0  0  0  0  0  0  0
    5.5426   -1.6000    0.0000 H   0  0  0  0  0  0  0  0  0  0  0  0
    5.5426    0.0000    0.0000 H   0  0  0  0  0  0  0  0  0  0  0  0
    4.1569   -2.4000    0.0000 H   0  0  0  0  0  0  0  0  0  0  0  0
    3.5713    1.3856    0.0000 C   0  0  0  0  0  0  0  0  0  0  0  0
    4.3713    2.7713    0.0000 H   0  0  0  0  0  0  0  0  0  0  0  0
    5.1712    1.3856    0.0000 H   0  0  0  0  0  0  0  0  0  0  0  0
    2.7713    2.7713    0.0000 H   0  0  0  0  0  0  0  0  0  0  0  0
    0.0000    0.0000    0.0000 C   0  0  0  0  0  0  0  0  0  0  0  0
    0.8000   -1.3856    0.0000 H   0  0  0  0  0  0  0  0  0  0  0  0
   -1.3857   -0.8000    0.0000 C   0  0  0  0  0  0  0  0  0  0  0  0
   -2.7713   -1.6000    0.0000 H   0  0  0  0  0  0  0  0  0  0  0  0
   -2.7713    0.0000    0.0000 H   0  0  0  0  0  0  0  0  0  0  0  0
   -1.3857   -2.4000    0.0000 H   0  0  0  0  0  0  0  0  0  0  0  0
   -0.8000    1.3856    0.0000 C   0  0  0  0  0  0  0  0  0  0  0  0
   -1.6000    2.7713    0.0000 H   0  0  0  0  0  0  0  0  0  0  0  0
   -2.4000    1.3856    0.0000 H   0  0  0  0  0  0  0  0  0  0  0  0
    0.0000    2.7713    0.0000 H   0  0  0  0  0  0  0  0  0  0  0  0
  1  2  1  0  0  0  0
  1  3  1  0  0  0  0
  3  4  1  0  0  0  0
  3  5  1  0  0  0  0
  5  6  1  0  0  0  0
  5  7  1  0  0  0  0
  5  8  1  0  0  0  0
  3  9  1  0  0  0  0
  9 10  1  0  0  0  0
  9 11  1  0  0  0  0
  9 12  1  0  0  0  0
  1 13  1  0  0  0  0
 13 14  1  0  0  0  0
 13 15  1  0  0  0  0
 15 16  1  0  0  0  0
 15 17  1  0  0  0  0
 15 18  1  0  0  0  0
 13 19  1  0  0  0  0
 19 20  1  0  0  0  0
 19 21  1  0  0  0  0
 19 22  1  0  0  0  0
M  END
> <ChemID>
100690

> <source_casrn>
108-18-9

> <CAS>
108-18-9

> <SMILES>
CC(C)NC(C)C

> <NAME>
DIISOPROPYLAMINE

> <preferred_name>
Diisopropylamine

> <iupac>
N-(propan-2-yl)propan-2-amine

> <MPID>
25323

> <dsstox_substance_id>
DTXSID9025085

> <Canonical_QSARr>
CC(C)NC(C)C

> <InChI_Code_QSARr>
InChI=1S/C6H15N/c1-5(2)7-6(3)4/h5-7H,1-4H3

> <InChI Key_QSARr>
UAOMVDZJSHZZME-UHFFFAOYSA-N

> <Salt_Solvent>
?

> <LogVP>
1.8998

$$$$
100694
  -INDIGO-08031723152D

 13 12  0  0  0  0  0  0  0  0999 V2000
    1.3856   -2.4000    0.0000 O   0  0  0  0  0  0  0  0  0  0  0  0
    1.3856   -0.8000    0.0000 C   0  0  0  0  0  0  0  0  0  0  0  0
    2.7712    0.0000    0.0000 O   0  0  0  0  0  0  0  0  0  0  0  0
    4.1569   -0.8000    0.0000 C   0  0  0  0  0  0  0  0  0  0  0  0
    4.1569   -2.4000    0.0000 O   0  0  0  0  0  0  0  0  0  0  0  0
    5.5425    0.0000    0.0000 C   0  0  0  0  0  0  0  0  0  0  0  0
    6.9282    0.8000    0.0000 H   0  0  0  0  0  0  0  0  0  0  0  0
    6.9282   -0.8000    0.0000 H   0  0  0  0  0  0  0  0  0  0  0  0
    5.5425    1.6000    0.0000 H   0  0  0  0  0  0  0  0  0  0  0  0
   -0.0001    0.0000    0.0000 C   0  0  0  0  0  0  0  0  0  0  0  0
   -1.3856    0.8000    0.0000 H   0  0  0  0  0  0  0  0  0  0  0  0
   -0.0001    1.6000    0.0000 H   0  0  0  0  0  0  0  0  0  0  0  0
   -1.3856   -0.8000    0.0000 H   0  0  0  0  0  0  0  0  0  0  0  0
  1  2  2  0  0  0  0
  2  3  1  0  0  0  0
  3  4  1  0  0  0  0
  4  5  2  0  0  0  0
  4  6  1  0  0  0  0
  6  7  1  0  0  0  0
  6  8  1  0  0  0  0
  6  9  1  0  0  0  0
  2 10  1  0  0  0  0
 10 11  1  0  0  0  0
 10 12  1  0  0  0  0
 10 13  1  0  0  0  0
M  END
> <ChemID>
100694

> <source_casrn>
108-24-7

> <CAS>
108-24-7

> <SMILES>
CC(=O)OC(C)=O

> <NAME>
ACETIC ANHYDRIDE

> <preferred_name>
Acetic anhydride

> <iupac>
acetic anhydride

> <MPID>
25327

> <dsstox_substance_id>
DTXSID0024395

> <Canonical_QSARr>
CC(=O)OC(C)=O

> <InChI_Code_QSARr>
InChI=1S/C4H6O3/c1-3(5)7-4(2)6/h1-2H3

> <InChI Key_QSARr>
WFDIJRYMOXRFFG-UHFFFAOYSA-N

> <Salt_Solvent>
?

> <LogVP>
0.7076

$$$$
100698
  -INDIGO-08031723152D

 12 12  0  0  0  0  0  0  0  0999 V2000
   -0.0000   -0.0000    0.0000 C   0  0  0  0  0  0  0  0  0  0  0  0
    0.8000   -1.3857    0.0000 C   0  0  0  0  0  0  0  0  0  0  0  0
    2.4000   -1.3857    0.0000 H   0  0  0  0  0  0  0  0  0  0  0  0
   -0.0000   -2.7713    0.0000 C   0  0  0  0  0  0  0  0  0  0  0  0
    0.8000   -4.1569    0.0000 H   0  0  0  0  0  0  0  0  0  0  0  0
   -1.6000   -2.7713    0.0000 C   0  0  0  0  0  0  0  0  0  0  0  0
   -2.4000   -4.1569    0.0000 H   0  0  0  0  0  0  0  0  0  0  0  0
   -2.4000   -1.3856    0.0000 C   0  0  0  0  0  0  0  0  0  0  0  0
   -4.0000   -1.3856    0.0000 Br  0  0  0  0  0  0  0  0  0  0  0  0
   -1.6000   -0.0000    0.0000 C   0  0  0  0  0  0  0  0  0  0  0  0
   -2.4000    1.3856    0.0000 H   0  0  0  0  0  0  0  0  0  0  0  0
    0.8000    1.3856    0.0000 Br  0  0  0  0  0  0  0  0  0  0  0  0
  1  2  1  0  0  0  0
  2  3  1  0  0  0  0
  2  4  2  0  0  0  0
  4  5  1  0  0  0  0
  4  6  1  0  0  0  0
  6  7  1  0  0  0  0
  6  8  2  0  0  0  0
  8  9  1  0  0  0  0
  8 10  1  0  0  0  0
 10  1  2  0  0  0  0
 10 11  1  0  0  0  0
  1 12  1  0  0  0  0
M  END
> <ChemID>
100698

> <source_casrn>
108-36-1

> <CAS>
108-36-1

> <SMILES>
Brc1cc(Br)ccc1

> <NAME>
M-DIBROMOBENZENE

> <preferred_name>
1,3-Dibromobenzene

> <iupac>
1,3-dibromobenzene

> <MPID>
25331

> <dsstox_substance_id>
DTXSID7051555

> <Canonical_QSARr>
Brc1cc(Br)ccc1

> <InChI_Code_QSARr>
InChI=1S/C6H4Br2/c7-5-2-1-3-6(8)4-5/h1-4H

> <InChI Key_QSARr>
JSRLURSZEMLAFO-UHFFFAOYSA-N

> <Salt_Solvent>
?

> <LogVP>
-0.5709

$$$$
100702
  -INDIGO-08031723152D

 15 15  0  0  0  0  0  0  0  0999 V2000
    0.0000   -0.0000    0.0000 C   0  0  0  0  0  0  0  0  0  0  0  0
   -0.8001    1.3856    0.0000 C   0  0  0  0  0  0  0  0  0  0  0  0
    0.0000    2.7713    0.0000 H   0  0  0  0  0  0  0  0  0  0  0  0
   -2.4001    1.3856    0.0000 C   0  0  0  0  0  0  0  0  0  0  0  0
   -3.2000    2.7713    0.0000 Cl  0  0  0  0  0  0  0  0  0  0  0  0
   -3.2000   -0.0000    0.0000 C   0  0  0  0  0  0  0  0  0  0  0  0
   -4.8000   -0.0000    0.0000 H   0  0  0  0  0  0  0  0  0  0  0  0
   -2.4001   -1.3856    0.0000 C   0  0  0  0  0  0  0  0  0  0  0  0
   -3.2000   -2.7713    0.0000 H   0  0  0  0  0  0  0  0  0  0  0  0
   -0.8001   -1.3856    0.0000 C   0  0  0  0  0  0  0  0  0  0  0  0
    0.0000   -2.7713    0.0000 H   0  0  0  0  0  0  0  0  0  0  0  0
    1.6000   -0.0000    0.0000 C   0  0  0  0  0  0  0  0  0  0  0  0
    3.2000   -0.0000    0.0000 H   0  0  0  0  0  0  0  0  0  0  0  0
    2.4001   -1.3856    0.0000 H   0  0  0  0  0  0  0  0  0  0  0  0
    2.4001    1.3856    0.0000 H   0  0  0  0  0  0  0  0  0  0  0  0
  1  2  1  0  0  0  0
  2  3  1  0  0  0  0
  2  4  2  0  0  0  0
  4  5  1  0  0  0  0
  4  6  1  0  0  0  0
  6  7  1  0  0  0  0
  6  8  2  0  0  0  0
  8  9  1  0  0  0  0
  8 10  1  0  0  0  0
 10  1  2  0  0  0  0
 10 11  1  0  0  0  0
  1 12  1  0  0  0  0
 12 13  1  0  0  0  0
 12 14  1  0  0  0  0
 12 15  1  0  0  0  0
M  END
> <ChemID>
100702

> <source_casrn>
108-41-8

> <CAS>
108-41-8

> <SMILES>
Cc1cc(Cl)ccc1

> <NAME>
M-CHLOROTOLUENE

> <preferred_name>
m-Chlorotoluene

> <iupac>
1-chloro-3-methylbenzene

> <MPID>
25335

> <dsstox_substance_id>
DTXSID4052841

> <Canonical_QSARr>
Cc1cc(Cl)ccc1

> <InChI_Code_QSARr>
InChI=1S/C7H7Cl/c1-6-3-2-4-7(8)5-6/h2-5H,1H3

> <InChI Key_QSARr>
OSOUNOBYRMOXQQ-UHFFFAOYSA-N

> <Salt_Solvent>
?

> <LogVP>
0.5653

$$$$
100706
  -INDIGO-08031723152D

 16 16  0  0  0  0  0  0  0  0999 V2000
    1.3857    0.8000    0.0000 N   0  0  0  0  0  0  0  0  0  0  0  0
    2.7713   -0.0000    0.0000 H   0  0  0  0  0  0  0  0  0  0  0  0
    1.3857    2.4000    0.0000 H   0  0  0  0  0  0  0  0  0  0  0  0
    0.0000   -0.0000    0.0000 C   0  0  0  0  0  0  0  0  0  0  0  0
   -1.3857    0.8000    0.0000 C   0  0  0  0  0  0  0  0  0  0  0  0
   -1.3857    2.4000    0.0000 H   0  0  0  0  0  0  0  0  0  0  0  0
   -2.7713   -0.0000    0.0000 C   0  0  0  0  0  0  0  0  0  0  0  0
   -4.1570    0.8000    0.0000 N   0  0  0  0  0  0  0  0  0  0  0  0
   -5.5426   -0.0000    0.0000 H   0  0  0  0  0  0  0  0  0  0  0  0
   -4.1569    2.4000    0.0000 H   0  0  0  0  0  0  0  0  0  0  0  0
   -2.7713   -1.6000    0.0000 C   0  0  0  0  0  0  0  0  0  0  0  0
   -4.1569   -2.4000    0.0000 H   0  0  0  0  0  0  0  0  0  0  0  0
   -1.3856   -2.4000    0.0000 C   0  0  0  0  0  0  0  0  0  0  0  0
   -1.3856   -4.0000    0.0000 H   0  0  0  0  0  0  0  0  0  0  0  0
    0.0000   -1.6000    0.0000 C   0  0  0  0  0  0  0  0  0  0  0  0
    1.3857   -2.4000    0.0000 H   0  0  0  0  0  0  0  0  0  0  0  0
  1  2  1  0  0  0  0
  1  3  1  0  0  0  0
  1  4  1  0  0  0  0
  4  5  1  0  0  0  0
  5  6  1  0  0  0  0
  5  7  2  0  0  0  0
  7  8  1  0  0  0  0
  8  9  1  0  0  0  0
  8 10  1  0  0  0  0
  7 11  1  0  0  0  0
 11 12  1  0  0  0  0
 11 13  2  0  0  0  0
 13 14  1  0  0  0  0
 13 15  1  0  0  0  0
 15  4  2  0  0  0  0
 15 16  1  0  0  0  0
M  END
> <ChemID>
100706

> <source_casrn>
108-45-2

> <CAS>
108-45-2

> <SMILES>
Nc1cc(N)ccc1

> <NAME>
1,3-BENZENEDIAMINE

> <preferred_name>
1,3-Benzenediamine

> <iupac>
benzene-1,3-diamine

> <MPID>
25339

> <dsstox_substance_id>
DTXSID4021137

> <Canonical_QSARr>
Nc1cc(N)ccc1

> <InChI_Code_QSARr>
InChI=1S/C6H8N2/c7-5-2-1-3-6(8)4-5/h1-4H,7-8H2

> <InChI Key_QSARr>
WZCQRUWWHSTZEM-UHFFFAOYSA-N

> <Salt_Solvent>
?

> <LogVP>
-2.6799

$$$$
100710
  -INDIGO-08031723152D

 14 14  0  0  0  0  0  0  0  0999 V2000
   -0.0000    3.2000    0.0000 O   0  0  0  0  0  0  0  0  0  0  0  0
    1.3857    2.4000    0.0000 C   0  0  0  0  0  0  0  0  0  0  0  0
    2.7713    3.2000    0.0000 O   0  0  0  0  0  0  0  0  0  0  0  0
    1.3857    0.8000    0.0000 C   0  0  0  0  0  0  0  0  0  0  0  0
    2.9613    1.0778    0.0000 H   0  0  0  0  0  0  0  0  0  0  0  0
    1.9329   -0.7035    0.0000 H   0  0  0  0  0  0  0  0  0  0  0  0
   -0.0000    0.0000    0.0000 C   0  0  0  0  0  0  0  0  0  0  0  0
    1.0285   -1.2257    0.0000 H   0  0  0  0  0  0  0  0  0  0  0  0
   -1.0285   -1.2257    0.0000 H   0  0  0  0  0  0  0  0  0  0  0  0
   -1.3857    0.8000    0.0000 C   0  0  0  0  0  0  0  0  0  0  0  0
   -1.9329   -0.7035    0.0000 H   0  0  0  0  0  0  0  0  0  0  0  0
   -2.9613    1.0778    0.0000 H   0  0  0  0  0  0  0  0  0  0  0  0
   -1.3857    2.4000    0.0000 C   0  0  0  0  0  0  0  0  0  0  0  0
   -2.7713    3.2000    0.0000 O   0  0  0  0  0  0  0  0  0  0  0  0
  1  2  1  0  0  0  0
  2  3  2  0  0  0  0
  2  4  1  0  0  0  0
  4  5  1  0  0  0  0
  4  6  1  0  0  0  0
  4  7  1  0  0  0  0
  7  8  1  0  0  0  0
  7  9  1  0  0  0  0
  7 10  1  0  0  0  0
 10 11  1  0  0  0  0
 10 12  1  0  0  0  0
 10 13  1  0  0  0  0
 13  1  1  0  0  0  0
 13 14  2  0  0  0  0
M  END
> <ChemID>
100710

> <source_casrn>
108-55-4

> <CAS>
108-55-4

> <SMILES>
O=C1CCCC(=O)O1

> <NAME>
GLUTARIC ANHYDRIDE

> <preferred_name>
Glutaric anhydride

> <iupac>
dihydro-2H-pyran-2,6(3H)-dione

> <MPID>
25343

> <dsstox_substance_id>
DTXSID5044362

> <Canonical_QSARr>
O=C1CCCC(=O)O1

> <InChI_Code_QSARr>
InChI=1S/C5H6O3/c6-4-2-1-3-5(7)8-4/h1-3H2

> <InChI Key_QSARr>
VANNPISTIUFMLH-UHFFFAOYSA-N

> <Salt_Solvent>
?

> <LogVP>
-2.5229

$$$$
100714
  -INDIGO-08031723152D

 23 22  0  0  0  0  0  0  0  0999 V2000
   -2.7292   -0.4812    0.0000 C   0  0  0  0  0  0  0  0  0  0  0  0
   -2.4514   -2.0569    0.0000 O   0  0  0  0  0  0  0  0  0  0  0  0
   -4.2327    0.0660    0.0000 O   0  0  0  0  0  0  0  0  0  0  0  0
   -5.4583   -0.9625    0.0000 C   0  0  0  0  0  0  0  0  0  0  0  0
   -5.8047   -2.5245    0.0000 H   0  0  0  0  0  0  0  0  0  0  0  0
   -4.5986   -2.3119    0.0000 H   0  0  0  0  0  0  0  0  0  0  0  0
   -6.9618   -0.4153    0.0000 C   0  0  0  0  0  0  0  0  0  0  0  0
   -8.4654    0.1320    0.0000 H   0  0  0  0  0  0  0  0  0  0  0  0
   -8.1876   -1.4437    0.0000 H   0  0  0  0  0  0  0  0  0  0  0  0
   -7.2398    1.1604    0.0000 H   0  0  0  0  0  0  0  0  0  0  0  0
   -1.5036    0.5473    0.0000 C   0  0  0  0  0  0  0  0  0  0  0  0
   -1.1572    2.1093    0.0000 H   0  0  0  0  0  0  0  0  0  0  0  0
   -2.3633    1.8967    0.0000 H   0  0  0  0  0  0  0  0  0  0  0  0
   -0.0000    0.0000    0.0000 C   0  0  0  0  0  0  0  0  0  0  0  0
   -0.8001   -1.3856    0.0000 H   0  0  0  0  0  0  0  0  0  0  0  0
    1.3857   -0.8000    0.0000 C   0  0  0  0  0  0  0  0  0  0  0  0
    2.7713   -1.6000    0.0000 H   0  0  0  0  0  0  0  0  0  0  0  0
    1.3857   -2.4000    0.0000 H   0  0  0  0  0  0  0  0  0  0  0  0
    2.7713    0.0000    0.0000 H   0  0  0  0  0  0  0  0  0  0  0  0
    0.8000    1.3857    0.0000 C   0  0  0  0  0  0  0  0  0  0  0  0
    1.6000    2.7713    0.0000 H   0  0  0  0  0  0  0  0  0  0  0  0
   -0.0000    2.7713    0.0000 H   0  0  0  0  0  0  0  0  0  0  0  0
    2.4001    1.3857    0.0000 H   0  0  0  0  0  0  0  0  0  0  0  0
  1  2  2  0  0  0  0
  1  3  1  0  0  0  0
  3  4  1  0  0  0  0
  4  5  1  0  0  0  0
  4  6  1  0  0  0  0
  4  7  1  0  0  0  0
  7  8  1  0  0  0  0
  7  9  1  0  0  0  0
  7 10  1  0  0  0  0
  1 11  1  0  0  0  0
 11 12  1  0  0  0  0
 11 13  1  0  0  0  0
 11 14  1  0  0  0  0
 14 15  1  0  0  0  0
 14 16  1  0  0  0  0
 16 17  1  0  0  0  0
 16 18  1  0  0  0  0
 16 19  1  0  0  0  0
 14 20  1  0  0  0  0
 20 21  1  0  0  0  0
 20 22  1  0  0  0  0
 20 23  1  0  0  0  0
M  END
> <ChemID>
100714

> <source_casrn>
108-64-5

> <CAS>
108-64-5

> <SMILES>
CCOC(=O)CC(C)C

> <NAME>
ETHYL ISOVALERATE

> <preferred_name>
Ethyl isovalerate

> <iupac>
ethyl 3-methylbutanoate

> <MPID>
25347

> <dsstox_substance_id>
DTXSID3047057

> <Canonical_QSARr>
CCOC(=O)CC(C)C

> <InChI_Code_QSARr>
InChI=1S/C7H14O2/c1-4-9-7(8)5-6(2)3/h6H,4-5H2,1-3H3

> <InChI Key_QSARr>
PPXUHEORWJQRHJ-UHFFFAOYSA-N

> <Salt_Solvent>
?

> <LogVP>
0.9191

$$$$
100718
  -INDIGO-08031723152D

 12 12  0  0  0  0  0  0  0  0999 V2000
   -0.0000   -0.0000    0.0000 C   0  0  0  0  0  0  0  0  0  0  0  0
    0.8000   -1.3857    0.0000 C   0  0  0  0  0  0  0  0  0  0  0  0
    2.4000   -1.3857    0.0000 H   0  0  0  0  0  0  0  0  0  0  0  0
   -0.0000   -2.7713    0.0000 C   0  0  0  0  0  0  0  0  0  0  0  0
    0.8000   -4.1569    0.0000 Cl  0  0  0  0  0  0  0  0  0  0  0  0
   -1.6000   -2.7713    0.0000 C   0  0  0  0  0  0  0  0  0  0  0  0
   -2.4000   -4.1569    0.0000 H   0  0  0  0  0  0  0  0  0  0  0  0
   -2.4000   -1.3856    0.0000 C   0  0  0  0  0  0  0  0  0  0  0  0
   -4.0000   -1.3856    0.0000 Cl  0  0  0  0  0  0  0  0  0  0  0  0
   -1.6000   -0.0000    0.0000 C   0  0  0  0  0  0  0  0  0  0  0  0
   -2.4000    1.3856    0.0000 H   0  0  0  0  0  0  0  0  0  0  0  0
    0.8000    1.3856    0.0000 Cl  0  0  0  0  0  0  0  0  0  0  0  0
  1  2  1  0  0  0  0
  2  3  1  0  0  0  0
  2  4  2  0  0  0  0
  4  5  1  0  0  0  0
  4  6  1  0  0  0  0
  6  7  1  0  0  0  0
  6  8  2  0  0  0  0
  8  9  1  0  0  0  0
  8 10  1  0  0  0  0
 10  1  2  0  0  0  0
 10 11  1  0  0  0  0
  1 12  1  0  0  0  0
M  END
> <ChemID>
100718

> <source_casrn>
108-70-3

> <CAS>
108-70-3

> <SMILES>
Clc1cc(Cl)cc(Cl)c1

> <NAME>
1,3,5-TRICHLOROBENZENE

> <preferred_name>
1,3,5-Trichlorobenzene

> <iupac>
C6H3Cl3

> <MPID>
25351

> <dsstox_substance_id>
DTXSID8026195

> <Canonical_QSARr>
Clc1cc(Cl)cc(Cl)c1

> <InChI_Code_QSARr>
InChI=1S/C6H3Cl3/c7-4-1-5(8)3-6(9)2-4/h1-3H

> <InChI Key_QSARr>
XKEFYDZQGKAQCN-UHFFFAOYSA-N

> <Salt_Solvent>
?

> <LogVP>
-0.6198

$$$$
100722
  -INDIGO-08031723152D

 28 27  0  0  0  0  0  0  0  0999 V2000
    2.4514   -2.0569    0.0000 O   0  0  0  0  0  0  0  0  0  0  0  0
    2.7291   -0.4812    0.0000 C   0  0  0  0  0  0  0  0  0  0  0  0
    4.2328    0.0660    0.0000 C   0  0  0  0  0  0  0  0  0  0  0  0
    3.8865    1.6281    0.0000 H   0  0  0  0  0  0  0  0  0  0  0  0
    5.0924    1.4154    0.0000 H   0  0  0  0  0  0  0  0  0  0  0  0
    5.4583   -0.9625    0.0000 C   0  0  0  0  0  0  0  0  0  0  0  0
    4.2328   -1.9909    0.0000 H   0  0  0  0  0  0  0  0  0  0  0  0
    6.4869   -2.1881    0.0000 C   0  0  0  0  0  0  0  0  0  0  0  0
    7.5153   -3.4138    0.0000 H   0  0  0  0  0  0  0  0  0  0  0  0
    8.0625   -1.9103    0.0000 H   0  0  0  0  0  0  0  0  0  0  0  0
    5.9396   -3.6916    0.0000 H   0  0  0  0  0  0  0  0  0  0  0  0
    6.6841    0.0660    0.0000 C   0  0  0  0  0  0  0  0  0  0  0  0
    7.9096    1.0945    0.0000 H   0  0  0  0  0  0  0  0  0  0  0  0
    6.4061    1.6417    0.0000 H   0  0  0  0  0  0  0  0  0  0  0  0
    8.1875   -0.4812    0.0000 H   0  0  0  0  0  0  0  0  0  0  0  0
    1.5036    0.5473    0.0000 C   0  0  0  0  0  0  0  0  0  0  0  0
    1.1572    2.1093    0.0000 H   0  0  0  0  0  0  0  0  0  0  0  0
    2.3632    1.8966    0.0000 H   0  0  0  0  0  0  0  0  0  0  0  0
    0.0001    0.0000    0.0000 C   0  0  0  0  0  0  0  0  0  0  0  0
    0.8001   -1.3857    0.0000 H   0  0  0  0  0  0  0  0  0  0  0  0
   -1.3857   -0.8000    0.0000 C   0  0  0  0  0  0  0  0  0  0  0  0
   -2.7713   -1.6000    0.0000 H   0  0  0  0  0  0  0  0  0  0  0  0
   -2.7713    0.0000    0.0000 H   0  0  0  0  0  0  0  0  0  0  0  0
   -1.3857   -2.4000    0.0000 H   0  0  0  0  0  0  0  0  0  0  0  0
   -0.8001    1.3856    0.0000 C   0  0  0  0  0  0  0  0  0  0  0  0
   -1.6001    2.7713    0.0000 H   0  0  0  0  0  0  0  0  0  0  0  0
    0.0001    2.7713    0.0000 H   0  0  0  0  0  0  0  0  0  0  0  0
   -2.4001    1.3856    0.0000 H   0  0  0  0  0  0  0  0  0  0  0  0
  1  2  2  0  0  0  0
  2  3  1  0  0  0  0
  3  4  1  0  0  0  0
  3  5  1  0  0  0  0
  3  6  1  0  0  0  0
  6  7  1  0  0  0  0
  6  8  1  0  0  0  0
  8  9  1  0  0  0  0
  8 10  1  0  0  0  0
  8 11  1  0  0  0  0
  6 12  1  0  0  0  0
 12 13  1  0  0  0  0
 12 14  1  0  0  0  0
 12 15  1  0  0  0  0
  2 16  1  0  0  0  0
 16 17  1  0  0  0  0
 16 18  1  0  0  0  0
 16 19  1  0  0  0  0
 19 20  1  0  0  0  0
 19 21  1  0  0  0  0
 21 22  1  0  0  0  0
 21 23  1  0  0  0  0
 21 24  1  0  0  0  0
 19 25  1  0  0  0  0
 25 26  1  0  0  0  0
 25 27  1  0  0  0  0
 25 28  1  0  0  0  0
M  END
> <ChemID>
100722

> <source_casrn>
108-83-8

> <CAS>
108-83-8

> <SMILES>
CC(C)CC(=O)CC(C)C

> <NAME>
2,6-DIMETHYL-4-HEPTANONE

> <preferred_name>
Diisobutyl ketone

> <iupac>
2,6-dimethylheptan-4-one

> <MPID>
25355

> <dsstox_substance_id>
DTXSID4025080

> <Canonical_QSARr>
CC(C)CC(=O)CC(C)C

> <InChI_Code_QSARr>
InChI=1S/C9H18O/c1-7(2)5-9(10)6-8(3)4/h7-8H,5-6H2,1-4H3

> <InChI Key_QSARr>
PTTPXKJBFFKCEK-UHFFFAOYSA-N

> <Salt_Solvent>
?

> <LogVP>
0.2175

$$$$
100726
  -INDIGO-08031723152D

 15 15  0  0  0  0  0  0  0  0999 V2000
    1.6000   -0.0000    0.0000 C   0  0  0  0  0  0  0  0  0  0  0  0
    3.2000   -0.0000    0.0000 H   0  0  0  0  0  0  0  0  0  0  0  0
    2.4001   -1.3856    0.0000 H   0  0  0  0  0  0  0  0  0  0  0  0
    2.4001    1.3856    0.0000 H   0  0  0  0  0  0  0  0  0  0  0  0
    0.0000   -0.0000    0.0000 C   0  0  0  0  0  0  0  0  0  0  0  0
   -0.7999    1.3856    0.0000 C   0  0  0  0  0  0  0  0  0  0  0  0
    0.0000    2.7713    0.0000 H   0  0  0  0  0  0  0  0  0  0  0  0
   -2.4001    1.3856    0.0000 C   0  0  0  0  0  0  0  0  0  0  0  0
   -3.2000    2.7713    0.0000 H   0  0  0  0  0  0  0  0  0  0  0  0
   -3.2000   -0.0000    0.0000 C   0  0  0  0  0  0  0  0  0  0  0  0
   -4.8000   -0.0000    0.0000 H   0  0  0  0  0  0  0  0  0  0  0  0
   -2.4001   -1.3856    0.0000 C   0  0  0  0  0  0  0  0  0  0  0  0
   -3.2000   -2.7713    0.0000 H   0  0  0  0  0  0  0  0  0  0  0  0
   -0.8001   -1.3856    0.0000 C   0  0  0  0  0  0  0  0  0  0  0  0
    0.0000   -2.7713    0.0000 H   0  0  0  0  0  0  0  0  0  0  0  0
  1  2  1  0  0  0  0
  1  3  1  0  0  0  0
  1  4  1  0  0  0  0
  1  5  1  0  0  0  0
  5  6  1  0  0  0  0
  6  7  1  0  0  0  0
  6  8  2  0  0  0  0
  8  9  1  0  0  0  0
  8 10  1  0  0  0  0
 10 11  1  0  0  0  0
 10 12  2  0  0  0  0
 12 13  1  0  0  0  0
 12 14  1  0  0  0  0
 14  5  2  0  0  0  0
 14 15  1  0  0  0  0
M  END
> <ChemID>
100726

> <source_casrn>
108-88-3

> <CAS>
108-88-3

> <SMILES>
Cc1ccccc1

> <NAME>
TOLUENE

> <preferred_name>
Toluene

> <iupac>
methylbenzene

> <MPID>
25359

> <dsstox_substance_id>
DTXSID7021360

> <Canonical_QSARr>
Cc1ccccc1

> <InChI_Code_QSARr>
InChI=1S/C7H8/c1-7-5-3-2-4-6-7/h2-6H,1H3

> <InChI Key_QSARr>
YXFVVABEGXRONW-UHFFFAOYSA-N

> <Salt_Solvent>
?

> <LogVP>
1.4533

$$$$
100730
  -INDIGO-08031723152D

 19 19  0  0  0  0  0  0  0  0999 V2000
   -0.0000    1.6000    0.0000 C   0  0  0  0  0  0  0  0  0  0  0  0
    0.5472    3.1035    0.0000 H   0  0  0  0  0  0  0  0  0  0  0  0
    1.5757    1.3222    0.0000 H   0  0  0  0  0  0  0  0  0  0  0  0
   -1.3857    2.4000    0.0000 C   0  0  0  0  0  0  0  0  0  0  0  0
   -0.3571    3.6257    0.0000 H   0  0  0  0  0  0  0  0  0  0  0  0
   -2.4141    3.6257    0.0000 H   0  0  0  0  0  0  0  0  0  0  0  0
   -2.7712    1.6000    0.0000 C   0  0  0  0  0  0  0  0  0  0  0  0
   -3.3185    3.1035    0.0000 H   0  0  0  0  0  0  0  0  0  0  0  0
   -4.3470    1.3222    0.0000 H   0  0  0  0  0  0  0  0  0  0  0  0
   -2.7712   -0.0000    0.0000 C   0  0  0  0  0  0  0  0  0  0  0  0
   -4.3470    0.2778    0.0000 H   0  0  0  0  0  0  0  0  0  0  0  0
   -3.3185   -1.5035    0.0000 H   0  0  0  0  0  0  0  0  0  0  0  0
   -1.3857   -0.8000    0.0000 C   0  0  0  0  0  0  0  0  0  0  0  0
   -2.4141   -2.0257    0.0000 H   0  0  0  0  0  0  0  0  0  0  0  0
   -0.3571   -2.0257    0.0000 H   0  0  0  0  0  0  0  0  0  0  0  0
   -0.0000   -0.0000    0.0000 C   0  0  0  0  0  0  0  0  0  0  0  0
    0.5472   -1.5035    0.0000 H   0  0  0  0  0  0  0  0  0  0  0  0
    1.5757    0.2778    0.0000 O   0  0  0  0  0  0  0  0  0  0  0  0
    2.6042   -0.9478    0.0000 H   0  0  0  0  0  0  0  0  0  0  0  0
  1  2  1  0  0  0  0
  1  3  1  0  0  0  0
  1  4  1  0  0  0  0
  4  5  1  0  0  0  0
  4  6  1  0  0  0  0
  4  7  1  0  0  0  0
  7  8  1  0  0  0  0
  7  9  1  0  0  0  0
  7 10  1  0  0  0  0
 10 11  1  0  0  0  0
 10 12  1  0  0  0  0
 10 13  1  0  0  0  0
 13 14  1  0  0  0  0
 13 15  1  0  0  0  0
 13 16  1  0  0  0  0
 16  1  1  0  0  0  0
 16 17  1  0  0  0  0
 16 18  1  0  0  0  0
 18 19  1  0  0  0  0
M  END
> <ChemID>
100730

> <source_casrn>
108-93-0

> <CAS>
108-93-0

> <SMILES>
OC1CCCCC1

> <NAME>
CYCLOHEXANOL

> <preferred_name>
Cyclohexanol

> <iupac>
cyclohexanol

> <MPID>
25363

> <dsstox_substance_id>
DTXSID4021894

> <Canonical_QSARr>
OC1CCCCC1

> <InChI_Code_QSARr>
InChI=1S/C6H12O/c7-6-4-2-1-3-5-6/h6-7H,1-5H2

> <InChI Key_QSARr>
HPXRVTGHNJAIIH-UHFFFAOYSA-N

> <Salt_Solvent>
?

> <LogVP>
-0.0969

$$$$
100734
  -INDIGO-08031723152D

 14 14  0  0  0  0  0  0  0  0999 V2000
   -2.4001    1.3856    0.0000 N   0  0  0  0  0  0  0  0  0  0  0  0
   -0.7999    1.3856    0.0000 C   0  0  0  0  0  0  0  0  0  0  0  0
    0.0000    2.7713    0.0000 H   0  0  0  0  0  0  0  0  0  0  0  0
    0.0000    0.0000    0.0000 C   0  0  0  0  0  0  0  0  0  0  0  0
    1.6000    0.0000    0.0000 C   0  0  0  0  0  0  0  0  0  0  0  0
    3.2000    0.0000    0.0000 H   0  0  0  0  0  0  0  0  0  0  0  0
    2.4001    1.3856    0.0000 H   0  0  0  0  0  0  0  0  0  0  0  0
    2.4001   -1.3856    0.0000 H   0  0  0  0  0  0  0  0  0  0  0  0
   -0.7999   -1.3856    0.0000 C   0  0  0  0  0  0  0  0  0  0  0  0
    0.0000   -2.7713    0.0000 H   0  0  0  0  0  0  0  0  0  0  0  0
   -2.4001   -1.3856    0.0000 C   0  0  0  0  0  0  0  0  0  0  0  0
   -3.2000   -2.7713    0.0000 H   0  0  0  0  0  0  0  0  0  0  0  0
   -3.2000   -0.0000    0.0000 C   0  0  0  0  0  0  0  0  0  0  0  0
   -4.8000    0.0000    0.0000 H   0  0  0  0  0  0  0  0  0  0  0  0
  1  2  1  0  0  0  0
  2  3  1  0  0  0  0
  2  4  2  0  0  0  0
  4  5  1  0  0  0  0
  5  6  1  0  0  0  0
  5  7  1  0  0  0  0
  5  8  1  0  0  0  0
  4  9  1  0  0  0  0
  9 10  1  0  0  0  0
  9 11  2  0  0  0  0
 11 12  1  0  0  0  0
 11 13  1  0  0  0  0
 13  1  2  0  0  0  0
 13 14  1  0  0  0  0
M  END
> <ChemID>
100734

> <source_casrn>
108-99-6

> <CAS>
108-99-6

> <SMILES>
Cc1c[n]ccc1

> <NAME>
3-METHYLPYRIDINE

> <preferred_name>
3-Methylpyridine

> <iupac>
3-methylpyridine

> <MPID>
25367

> <dsstox_substance_id>
DTXSID9021897

> <Canonical_QSARr>
Cc1c[n]ccc1

> <InChI_Code_QSARr>
InChI=1S/C6H7N/c1-6-3-2-4-7-5-6/h2-5H,1H3

> <InChI Key_QSARr>
ITQTTZVARXURQS-UHFFFAOYSA-N

> <Salt_Solvent>
?

> <LogVP>
0.7818

$$$$
100738
  -INDIGO-08031723152D

 13 13  0  0  0  0  0  0  0  0999 V2000
   -1.3856    0.8000    0.0000 N   0  0  0  0  0  0  0  0  0  0  0  0
    0.0000    0.0000    0.0000 C   0  0  0  0  0  0  0  0  0  0  0  0
    1.3856    0.8000    0.0000 C   0  0  0  0  0  0  0  0  0  0  0  0
    2.7713    1.6000    0.0000 H   0  0  0  0  0  0  0  0  0  0  0  0
    1.3856    2.4000    0.0000 H   0  0  0  0  0  0  0  0  0  0  0  0
    2.7713    0.0000    0.0000 H   0  0  0  0  0  0  0  0  0  0  0  0
    0.0000   -1.6000    0.0000 C   0  0  0  0  0  0  0  0  0  0  0  0
    1.3856   -2.4000    0.0000 H   0  0  0  0  0  0  0  0  0  0  0  0
   -1.3856   -2.4000    0.0000 N   0  0  0  0  0  0  0  0  0  0  0  0
   -2.7713   -1.6000    0.0000 C   0  0  0  0  0  0  0  0  0  0  0  0
   -4.1569   -2.4000    0.0000 H   0  0  0  0  0  0  0  0  0  0  0  0
   -2.7713    0.0000    0.0000 C   0  0  0  0  0  0  0  0  0  0  0  0
   -4.1569    0.8000    0.0000 H   0  0  0  0  0  0  0  0  0  0  0  0
  1  2  1  0  0  0  0
  2  3  1  0  0  0  0
  3  4  1  0  0  0  0
  3  5  1  0  0  0  0
  3  6  1  0  0  0  0
  2  7  2  0  0  0  0
  7  8  1  0  0  0  0
  7  9  1  0  0  0  0
  9 10  2  0  0  0  0
 10 11  1  0  0  0  0
 10 12  1  0  0  0  0
 12  1  2  0  0  0  0
 12 13  1  0  0  0  0
M  END
> <ChemID>
100738

> <source_casrn>
109-08-0

> <CAS>
109-08-0

> <SMILES>
Cc1c[n]cc[n]1

> <NAME>
2-METHYLPYRAZINE

> <preferred_name>
2-Methylpyrazine

> <iupac>
2-methylpyrazine

> <MPID>
25371

> <dsstox_substance_id>
DTXSID4047620

> <Canonical_QSARr>
Cc1c[n]cc[n]1

> <InChI_Code_QSARr>
InChI=1S/C5H6N2/c1-5-4-6-2-3-7-5/h2-4H,1H3

> <InChI Key_QSARr>
CAWHJQAVHZEVTJ-UHFFFAOYSA-N

> <Salt_Solvent>
?

> <LogVP>
0.9061

$$$$
100742
  -INDIGO-08031723152D

 17 16  0  0  0  0  0  0  0  0999 V2000
   -0.0001    0.0000    0.0000 C   0  0  0  0  0  0  0  0  0  0  0  0
    0.6122   -1.4782    0.0000 H   0  0  0  0  0  0  0  0  0  0  0  0
   -0.6124   -1.4782    0.0000 H   0  0  0  0  0  0  0  0  0  0  0  0
   -1.3857    0.8000    0.0000 C   0  0  0  0  0  0  0  0  0  0  0  0
   -2.7713    0.0000    0.0000 C   0  0  0  0  0  0  0  0  0  0  0  0
   -4.1569   -0.8000    0.0000 H   0  0  0  0  0  0  0  0  0  0  0  0
   -4.1569    0.8000    0.0000 H   0  0  0  0  0  0  0  0  0  0  0  0
   -2.7713   -1.6000    0.0000 H   0  0  0  0  0  0  0  0  0  0  0  0
   -1.3857    2.4000    0.0000 O   0  0  0  0  0  0  0  0  0  0  0  0
    1.3857    0.8000    0.0000 C   0  0  0  0  0  0  0  0  0  0  0  0
    0.7734    2.2782    0.0000 H   0  0  0  0  0  0  0  0  0  0  0  0
    1.9980    2.2782    0.0000 H   0  0  0  0  0  0  0  0  0  0  0  0
    2.7713    0.0000    0.0000 C   0  0  0  0  0  0  0  0  0  0  0  0
    2.7713   -1.6000    0.0000 H   0  0  0  0  0  0  0  0  0  0  0  0
    4.1569    0.8000    0.0000 C   0  0  0  0  0  0  0  0  0  0  0  0
    5.5426    0.0000    0.0000 H   0  0  0  0  0  0  0  0  0  0  0  0
    4.1569    2.4000    0.0000 H   0  0  0  0  0  0  0  0  0  0  0  0
  1  2  1  0  0  0  0
  1  3  1  0  0  0  0
  1  4  1  0  0  0  0
  4  5  1  0  0  0  0
  5  6  1  0  0  0  0
  5  7  1  0  0  0  0
  5  8  1  0  0  0  0
  4  9  2  0  0  0  0
  1 10  1  0  0  0  0
 10 11  1  0  0  0  0
 10 12  1  0  0  0  0
 10 13  1  0  0  0  0
 13 14  1  0  0  0  0
 13 15  2  0  0  0  0
 15 16  1  0  0  0  0
 15 17  1  0  0  0  0
M  END
> <ChemID>
100742

> <source_casrn>
109-49-9

> <CAS>
109-49-9

> <SMILES>
CC(=O)CCC=C

> <NAME>
1-HEXEN-5-ONE

> <preferred_name>
5-Hexen-2-one

> <iupac>
hex-5-en-2-one

> <MPID>
25375

> <dsstox_substance_id>
DTXSID0059372

> <Canonical_QSARr>
CC(=O)CCC=C

> <InChI_Code_QSARr>
InChI=1S/C6H10O/c1-3-4-5-6(2)7/h3H,1,4-5H2,2H3

> <InChI Key_QSARr>
RNDVGJZUHCKENF-UHFFFAOYSA-N

> <Salt_Solvent>
?

> <LogVP>
1.0212

$$$$
100746
  -INDIGO-08031723152D

 17 16  0  0  0  0  0  0  0  0999 V2000
    5.5426    0.0000    0.0000 C   0  0  0  0  0  0  0  0  0  0  0  0
    6.9282   -0.8000    0.0000 H   0  0  0  0  0  0  0  0  0  0  0  0
    6.9282    0.8000    0.0000 H   0  0  0  0  0  0  0  0  0  0  0  0
    5.5426   -1.6000    0.0000 H   0  0  0  0  0  0  0  0  0  0  0  0
    4.1570    0.8000    0.0000 C   0  0  0  0  0  0  0  0  0  0  0  0
    4.1570    2.4000    0.0000 O   0  0  0  0  0  0  0  0  0  0  0  0
    2.7713    0.0000    0.0000 O   0  0  0  0  0  0  0  0  0  0  0  0
    1.3856    0.8000    0.0000 C   0  0  0  0  0  0  0  0  0  0  0  0
    0.7733    2.2782    0.0000 H   0  0  0  0  0  0  0  0  0  0  0  0
    1.9979    2.2782    0.0000 H   0  0  0  0  0  0  0  0  0  0  0  0
   -0.0000    0.0000    0.0000 C   0  0  0  0  0  0  0  0  0  0  0  0
    0.6123   -1.4782    0.0000 H   0  0  0  0  0  0  0  0  0  0  0  0
   -0.6123   -1.4782    0.0000 H   0  0  0  0  0  0  0  0  0  0  0  0
   -1.3857    0.8000    0.0000 C   0  0  0  0  0  0  0  0  0  0  0  0
   -2.7713    1.6000    0.0000 H   0  0  0  0  0  0  0  0  0  0  0  0
   -2.7713    0.0000    0.0000 H   0  0  0  0  0  0  0  0  0  0  0  0
   -1.3857    2.4000    0.0000 H   0  0  0  0  0  0  0  0  0  0  0  0
  1  2  1  0  0  0  0
  1  3  1  0  0  0  0
  1  4  1  0  0  0  0
  1  5  1  0  0  0  0
  5  6  2  0  0  0  0
  5  7  1  0  0  0  0
  7  8  1  0  0  0  0
  8  9  1  0  0  0  0
  8 10  1  0  0  0  0
  8 11  1  0  0  0  0
 11 12  1  0  0  0  0
 11 13  1  0  0  0  0
 11 14  1  0  0  0  0
 14 15  1  0  0  0  0
 14 16  1  0  0  0  0
 14 17  1  0  0  0  0
M  END
> <ChemID>
100746

> <source_casrn>
109-60-4

> <CAS>
109-60-4

> <SMILES>
CCCOC(C)=O

> <NAME>
N-PROPYL ACETATE

> <preferred_name>
Propyl acetate

> <iupac>
propyl acetate

> <MPID>
25379

> <dsstox_substance_id>
DTXSID6021901

> <Canonical_QSARr>
CCCOC(C)=O

> <InChI_Code_QSARr>
InChI=1S/C5H10O2/c1-3-4-7-5(2)6/h3-4H2,1-2H3

> <InChI Key_QSARr>
YKYONYBAUNKHLG-UHFFFAOYSA-N

> <Salt_Solvent>
?

> <LogVP>
1.5551

$$$$
100750
  -INDIGO-08031723152D

 17 16  0  0  0  0  0  0  0  0999 V2000
   -1.3856    0.8000    0.0000 C   0  0  0  0  0  0  0  0  0  0  0  0
   -0.7734    2.2782    0.0000 H   0  0  0  0  0  0  0  0  0  0  0  0
   -1.9979    2.2782    0.0000 H   0  0  0  0  0  0  0  0  0  0  0  0
    0.0001   -0.0000    0.0000 C   0  0  0  0  0  0  0  0  0  0  0  0
   -0.6123   -1.4782    0.0000 H   0  0  0  0  0  0  0  0  0  0  0  0
    0.6123   -1.4782    0.0000 H   0  0  0  0  0  0  0  0  0  0  0  0
    1.3856    0.8000    0.0000 C   0  0  0  0  0  0  0  0  0  0  0  0
    1.9979    2.2782    0.0000 H   0  0  0  0  0  0  0  0  0  0  0  0
    0.7734    2.2782    0.0000 H   0  0  0  0  0  0  0  0  0  0  0  0
    2.7713   -0.0000    0.0000 C   0  0  0  0  0  0  0  0  0  0  0  0
    4.1569   -0.8000    0.0000 H   0  0  0  0  0  0  0  0  0  0  0  0
    4.1569    0.8000    0.0000 H   0  0  0  0  0  0  0  0  0  0  0  0
    2.7713   -1.6000    0.0000 H   0  0  0  0  0  0  0  0  0  0  0  0
   -2.7712   -0.0000    0.0000 C   0  0  0  0  0  0  0  0  0  0  0  0
   -4.1569   -0.8000    0.0000 H   0  0  0  0  0  0  0  0  0  0  0  0
   -4.1569    0.8000    0.0000 H   0  0  0  0  0  0  0  0  0  0  0  0
   -2.7713   -1.6000    0.0000 H   0  0  0  0  0  0  0  0  0  0  0  0
  1  2  1  0  0  0  0
  1  3  1  0  0  0  0
  1  4  1  0  0  0  0
  4  5  1  0  0  0  0
  4  6  1  0  0  0  0
  4  7  1  0  0  0  0
  7  8  1  0  0  0  0
  7  9  1  0  0  0  0
  7 10  1  0  0  0  0
 10 11  1  0  0  0  0
 10 12  1  0  0  0  0
 10 13  1  0  0  0  0
  1 14  1  0  0  0  0
 14 15  1  0  0  0  0
 14 16  1  0  0  0  0
 14 17  1  0  0  0  0
M  END
> <ChemID>
100750

> <source_casrn>
109-66-0

> <CAS>
109-66-0

> <SMILES>
CCCCC

> <NAME>
N-PENTANE

> <preferred_name>
Pentane

> <iupac>
C5H12

> <MPID>
25383

> <dsstox_substance_id>
DTXSID2025846

> <Canonical_QSARr>
CCCCC

> <InChI_Code_QSARr>
InChI=1S/C5H12/c1-3-5-4-2/h3-5H2,1-2H3

> <InChI Key_QSARr>
OFBQJSOFQDEBGM-UHFFFAOYSA-N

> <Salt_Solvent>
?

> <LogVP>
2.711

$$$$
100755
  -INDIGO-08031723152D

 16 15  0  0  0  0  0  0  0  0999 V2000
    2.7713   -0.0000    0.0000 C   0  0  0  0  0  0  0  0  0  0  0  0
    4.1569   -0.8000    0.0000 H   0  0  0  0  0  0  0  0  0  0  0  0
    4.1569    0.8000    0.0000 H   0  0  0  0  0  0  0  0  0  0  0  0
    2.7713   -1.6000    0.0000 H   0  0  0  0  0  0  0  0  0  0  0  0
    1.3856    0.8000    0.0000 C   0  0  0  0  0  0  0  0  0  0  0  0
    0.7734    2.2782    0.0000 H   0  0  0  0  0  0  0  0  0  0  0  0
    1.9979    2.2782    0.0000 H   0  0  0  0  0  0  0  0  0  0  0  0
    0.0001   -0.0000    0.0000 C   0  0  0  0  0  0  0  0  0  0  0  0
    0.6123   -1.4782    0.0000 H   0  0  0  0  0  0  0  0  0  0  0  0
   -0.6123   -1.4782    0.0000 H   0  0  0  0  0  0  0  0  0  0  0  0
   -1.3856    0.8000    0.0000 C   0  0  0  0  0  0  0  0  0  0  0  0
   -1.9979    2.2782    0.0000 H   0  0  0  0  0  0  0  0  0  0  0  0
   -0.7734    2.2782    0.0000 H   0  0  0  0  0  0  0  0  0  0  0  0
   -2.7713   -0.0000    0.0000 N   0  0  0  0  0  0  0  0  0  0  0  0
   -4.1569    0.8000    0.0000 H   0  0  0  0  0  0  0  0  0  0  0  0
   -2.7712   -1.6000    0.0000 H   0  0  0  0  0  0  0  0  0  0  0  0
  1  2  1  0  0  0  0
  1  3  1  0  0  0  0
  1  4  1  0  0  0  0
  1  5  1  0  0  0  0
  5  6  1  0  0  0  0
  5  7  1  0  0  0  0
  5  8  1  0  0  0  0
  8  9  1  0  0  0  0
  8 10  1  0  0  0  0
  8 11  1  0  0  0  0
 11 12  1  0  0  0  0
 11 13  1  0  0  0  0
 11 14  1  0  0  0  0
 14 15  1  0  0  0  0
 14 16  1  0  0  0  0
M  END
> <ChemID>
100755

> <source_casrn>
109-73-9

> <CAS>
109-73-9

> <SMILES>
CCCCN

> <NAME>
N-BUTYLAMINE

> <preferred_name>
Butylamine

> <iupac>
butan-1-amine

> <MPID>
25387

> <dsstox_substance_id>
DTXSID1021904

> <Canonical_QSARr>
CCCCN

> <InChI_Code_QSARr>
InChI=1S/C4H11N/c1-2-3-4-5/h2-5H2,1H3

> <InChI Key_QSARr>
HQABUPZFAYXKJW-UHFFFAOYSA-N

> <Salt_Solvent>
?

> <LogVP>
1.968

$$$$
100759
  -INDIGO-08031723152D

 10  9  0  0  0  0  0  0  0  0999 V2000
   -2.7713   -1.6000    0.0000 N   0  0  0  0  0  0  0  0  0  0  0  0
   -1.3856   -0.8000    0.0000 C   0  0  0  0  0  0  0  0  0  0  0  0
    0.0000    0.0000    0.0000 C   0  0  0  0  0  0  0  0  0  0  0  0
   -0.6123    1.4782    0.0000 H   0  0  0  0  0  0  0  0  0  0  0  0
    0.6123    1.4782    0.0000 H   0  0  0  0  0  0  0  0  0  0  0  0
    1.3856   -0.8000    0.0000 C   0  0  0  0  0  0  0  0  0  0  0  0
    1.9980   -2.2782    0.0000 H   0  0  0  0  0  0  0  0  0  0  0  0
    0.7733   -2.2782    0.0000 H   0  0  0  0  0  0  0  0  0  0  0  0
    2.7713    0.0000    0.0000 O   0  0  0  0  0  0  0  0  0  0  0  0
    4.1569   -0.8000    0.0000 H   0  0  0  0  0  0  0  0  0  0  0  0
  1  2  3  0  0  0  0
  2  3  1  0  0  0  0
  3  4  1  0  0  0  0
  3  5  1  0  0  0  0
  3  6  1  0  0  0  0
  6  7  1  0  0  0  0
  6  8  1  0  0  0  0
  6  9  1  0  0  0  0
  9 10  1  0  0  0  0
M  END
> <ChemID>
100759

> <source_casrn>
109-78-4

> <CAS>
109-78-4

> <SMILES>
N#CCCO

> <NAME>
ETHYLENE CYANOHYDRIN

> <preferred_name>
3-Hydroxypropanenitrile

> <iupac>
3-hydroxypropanenitrile

> <MPID>
25391

> <dsstox_substance_id>
DTXSID1025433

> <Canonical_QSARr>
N#CCCO

> <InChI_Code_QSARr>
InChI=1S/C3H5NO/c4-2-1-3-5/h5H,1,3H2

> <InChI Key_QSARr>
WSGYTJNNHPZFKR-UHFFFAOYSA-N

> <Salt_Solvent>
?

> <LogVP>
-1.0958

$$$$
100763
  -INDIGO-08031723152D

 13 12  0  0  0  0  0  0  0  0999 V2000
   -1.3856    0.8000    0.0000 O   0  0  0  0  0  0  0  0  0  0  0  0
    0.0001    0.0000    0.0000 C   0  0  0  0  0  0  0  0  0  0  0  0
   -0.6123   -1.4782    0.0000 H   0  0  0  0  0  0  0  0  0  0  0  0
    0.6123   -1.4782    0.0000 H   0  0  0  0  0  0  0  0  0  0  0  0
    1.3856    0.8000    0.0000 O   0  0  0  0  0  0  0  0  0  0  0  0
    2.7713    0.0000    0.0000 C   0  0  0  0  0  0  0  0  0  0  0  0
    4.1569   -0.8000    0.0000 H   0  0  0  0  0  0  0  0  0  0  0  0
    4.1569    0.8000    0.0000 H   0  0  0  0  0  0  0  0  0  0  0  0
    2.7713   -1.6000    0.0000 H   0  0  0  0  0  0  0  0  0  0  0  0
   -2.7712    0.0000    0.0000 C   0  0  0  0  0  0  0  0  0  0  0  0
   -4.1569   -0.8000    0.0000 H   0  0  0  0  0  0  0  0  0  0  0  0
   -4.1569    0.8000    0.0000 H   0  0  0  0  0  0  0  0  0  0  0  0
   -2.7713   -1.6000    0.0000 H   0  0  0  0  0  0  0  0  0  0  0  0
  1  2  1  0  0  0  0
  2  3  1  0  0  0  0
  2  4  1  0  0  0  0
  2  5  1  0  0  0  0
  5  6  1  0  0  0  0
  6  7  1  0  0  0  0
  6  8  1  0  0  0  0
  6  9  1  0  0  0  0
  1 10  1  0  0  0  0
 10 11  1  0  0  0  0
 10 12  1  0  0  0  0
 10 13  1  0  0  0  0
M  END
> <ChemID>
100763

> <source_casrn>
109-87-5

> <CAS>
109-87-5

> <SMILES>
COCOC

> <NAME>
DIMETHOXYMETHANE

> <preferred_name>
Dimethoxymethane

> <iupac>
dimethoxymethane

> <MPID>
25395

> <dsstox_substance_id>
DTXSID1025564

> <Canonical_QSARr>
COCOC

> <InChI_Code_QSARr>
InChI=1S/C3H8O2/c1-4-3-5-2/h3H2,1-2H3

> <InChI Key_QSARr>
NKDDWNXOKDWJAK-UHFFFAOYSA-N

> <Salt_Solvent>
?

> <LogVP>
2.5993

$$$$
100767
  -INDIGO-08031723152D

 11 10  0  0  0  0  0  0  0  0999 V2000
    2.7713    0.0000    0.0000 C   0  0  0  0  0  0  0  0  0  0  0  0
    4.1569    0.8000    0.0000 H   0  0  0  0  0  0  0  0  0  0  0  0
    2.7713   -1.6000    0.0000 O   0  0  0  0  0  0  0  0  0  0  0  0
    1.3856    0.8000    0.0000 O   0  0  0  0  0  0  0  0  0  0  0  0
    0.0000    0.0000    0.0000 C   0  0  0  0  0  0  0  0  0  0  0  0
   -0.6123   -1.4782    0.0000 H   0  0  0  0  0  0  0  0  0  0  0  0
    0.6123   -1.4782    0.0000 H   0  0  0  0  0  0  0  0  0  0  0  0
   -1.3856    0.8000    0.0000 C   0  0  0  0  0  0  0  0  0  0  0  0
   -2.7713    1.6000    0.0000 H   0  0  0  0  0  0  0  0  0  0  0  0
   -2.7713    0.0000    0.0000 H   0  0  0  0  0  0  0  0  0  0  0  0
   -1.3856    2.4000    0.0000 H   0  0  0  0  0  0  0  0  0  0  0  0
  1  2  1  0  0  0  0
  1  3  2  0  0  0  0
  1  4  1  0  0  0  0
  4  5  1  0  0  0  0
  5  6  1  0  0  0  0
  5  7  1  0  0  0  0
  5  8  1  0  0  0  0
  8  9  1  0  0  0  0
  8 10  1  0  0  0  0
  8 11  1  0  0  0  0
M  END
> <ChemID>
100767

> <source_casrn>
109-94-4

> <CAS>
109-94-4

> <SMILES>
CCOC=O

> <NAME>
ETHYL FORMATE

> <preferred_name>
Ethyl formate

> <iupac>
ethyl formate

> <MPID>
25399

> <dsstox_substance_id>
DTXSID6040117

> <Canonical_QSARr>
CCOC=O

> <InChI_Code_QSARr>
InChI=1S/C3H6O2/c1-2-5-3-4/h3H,2H2,1H3

> <InChI Key_QSARr>
WBJINCZRORDGAQ-UHFFFAOYSA-N

> <Salt_Solvent>
?

> <LogVP>
2.3885

$$$$
100771
  -INDIGO-08031723152D

 13 13  0  0  0  0  0  0  0  0999 V2000
    1.0530    2.3650    0.0000 S   0  0  0  0  0  0  0  0  0  0  0  0
    2.2420    1.2944    0.0000 C   0  0  0  0  0  0  0  0  0  0  0  0
    3.1825    2.5888    0.0000 H   0  0  0  0  0  0  0  0  0  0  0  0
    3.6277    0.4944    0.0000 H   0  0  0  0  0  0  0  0  0  0  0  0
    1.5912   -0.1672    0.0000 C   0  0  0  0  0  0  0  0  0  0  0  0
    3.1130   -0.6617    0.0000 H   0  0  0  0  0  0  0  0  0  0  0  0
    1.2586   -1.7323    0.0000 H   0  0  0  0  0  0  0  0  0  0  0  0
    0.0000    0.0000    0.0000 C   0  0  0  0  0  0  0  0  0  0  0  0
    0.0000   -1.6000    0.0000 H   0  0  0  0  0  0  0  0  0  0  0  0
   -1.5913   -0.1672    0.0000 H   0  0  0  0  0  0  0  0  0  0  0  0
   -0.3327    1.5651    0.0000 C   0  0  0  0  0  0  0  0  0  0  0  0
   -1.8543    1.0706    0.0000 H   0  0  0  0  0  0  0  0  0  0  0  0
   -0.9835    3.0267    0.0000 H   0  0  0  0  0  0  0  0  0  0  0  0
  1  2  1  0  0  0  0
  2  3  1  0  0  0  0
  2  4  1  0  0  0  0
  2  5  1  0  0  0  0
  5  6  1  0  0  0  0
  5  7  1  0  0  0  0
  5  8  1  0  0  0  0
  8  9  1  0  0  0  0
  8 10  1  0  0  0  0
  8 11  1  0  0  0  0
 11  1  1  0  0  0  0
 11 12  1  0  0  0  0
 11 13  1  0  0  0  0
M  END
> <ChemID>
100771

> <source_casrn>
110-01-0

> <CAS>
110-01-0

> <SMILES>
C1CCCS1

> <NAME>
TETRAHYDROTHIOPHENE

> <preferred_name>
Tetrahydrothiophene

> <iupac>
tetrahydrothiophene

> <MPID>
25403

> <dsstox_substance_id>
DTXSID3047760

> <Canonical_QSARr>
C1CCCS1

> <InChI_Code_QSARr>
InChI=1S/C4H8S/c1-2-4-5-3-1/h1-4H2

> <InChI Key_QSARr>
RAOIDOHSFRTOEL-UHFFFAOYSA-N

> <Salt_Solvent>
?

> <LogVP>
1.2648

$$$$
100775
  -INDIGO-08031723152D

 14 13  0  0  0  0  0  0  0  0999 V2000
    1.3857   -0.8000    0.0000 C   0  0  0  0  0  0  0  0  0  0  0  0
    2.7713    0.0000    0.0000 O   0  0  0  0  0  0  0  0  0  0  0  0
    4.1569   -0.8000    0.0000 H   0  0  0  0  0  0  0  0  0  0  0  0
    1.3857   -2.4000    0.0000 O   0  0  0  0  0  0  0  0  0  0  0  0
    0.0001    0.0000    0.0000 C   0  0  0  0  0  0  0  0  0  0  0  0
    0.6124    1.4782    0.0000 H   0  0  0  0  0  0  0  0  0  0  0  0
   -0.6122    1.4782    0.0000 H   0  0  0  0  0  0  0  0  0  0  0  0
   -1.3857   -0.8000    0.0000 C   0  0  0  0  0  0  0  0  0  0  0  0
   -1.9980   -2.2782    0.0000 H   0  0  0  0  0  0  0  0  0  0  0  0
   -0.7734   -2.2782    0.0000 H   0  0  0  0  0  0  0  0  0  0  0  0
   -2.7713    0.0000    0.0000 C   0  0  0  0  0  0  0  0  0  0  0  0
   -4.1569   -0.8000    0.0000 O   0  0  0  0  0  0  0  0  0  0  0  0
   -5.5426    0.0000    0.0000 H   0  0  0  0  0  0  0  0  0  0  0  0
   -2.7713    1.6000    0.0000 O   0  0  0  0  0  0  0  0  0  0  0  0
  1  2  1  0  0  0  0
  2  3  1  0  0  0  0
  1  4  2  0  0  0  0
  1  5  1  0  0  0  0
  5  6  1  0  0  0  0
  5  7  1  0  0  0  0
  5  8  1  0  0  0  0
  8  9  1  0  0  0  0
  8 10  1  0  0  0  0
  8 11  1  0  0  0  0
 11 12  1  0  0  0  0
 12 13  1  0  0  0  0
 11 14  2  0  0  0  0
M  END
> <ChemID>
100775

> <source_casrn>
110-15-6

> <CAS>
110-15-6

> <SMILES>
OC(=O)CCC(O)=O

> <NAME>
BUTANEDIOC ACID

> <preferred_name>
Butanedioic acid

> <iupac>
butanedioic acid

> <MPID>
25407

> <dsstox_substance_id>
DTXSID6023602

> <Canonical_QSARr>
OC(=O)CCC(O)=O

> <InChI_Code_QSARr>
InChI=1S/C4H6O4/c5-3(6)1-2-4(7)8/h1-2H2,(H,5,6)(H,7,8)

> <InChI Key_QSARr>
KDYFGRWQOYBRFD-UHFFFAOYSA-N

> <Salt_Solvent>
?

> <LogVP>
-6.719

$$$$
100779
  -INDIGO-08031723152D

 44 43  0  0  0  0  0  0  0  0999 V2000
    9.6995   -0.8000    0.0000 C   0  0  0  0  0  0  0  0  0  0  0  0
   11.0851   -1.6000    0.0000 H   0  0  0  0  0  0  0  0  0  0  0  0
   11.0851    0.0000    0.0000 H   0  0  0  0  0  0  0  0  0  0  0  0
    9.6995   -2.4000    0.0000 H   0  0  0  0  0  0  0  0  0  0  0  0
    8.3138    0.0000    0.0000 C   0  0  0  0  0  0  0  0  0  0  0  0
    8.9260    1.4782    0.0000 H   0  0  0  0  0  0  0  0  0  0  0  0
    7.7017    1.4782    0.0000 H   0  0  0  0  0  0  0  0  0  0  0  0
    6.9282   -0.8000    0.0000 O   0  0  0  0  0  0  0  0  0  0  0  0
    5.5426    0.0000    0.0000 C   0  0  0  0  0  0  0  0  0  0  0  0
    5.5426    1.6000    0.0000 O   0  0  0  0  0  0  0  0  0  0  0  0
    4.1569   -0.8000    0.0000 C   0  0  0  0  0  0  0  0  0  0  0  0
    3.5448   -2.2782    0.0000 H   0  0  0  0  0  0  0  0  0  0  0  0
    4.7690   -2.2782    0.0000 H   0  0  0  0  0  0  0  0  0  0  0  0
    2.7713    0.0000    0.0000 C   0  0  0  0  0  0  0  0  0  0  0  0
    3.3834    1.4782    0.0000 H   0  0  0  0  0  0  0  0  0  0  0  0
    2.1592    1.4782    0.0000 H   0  0  0  0  0  0  0  0  0  0  0  0
    1.3856   -0.8000    0.0000 C   0  0  0  0  0  0  0  0  0  0  0  0
    0.7735   -2.2782    0.0000 H   0  0  0  0  0  0  0  0  0  0  0  0
    1.9978   -2.2782    0.0000 H   0  0  0  0  0  0  0  0  0  0  0  0
    0.0000    0.0000    0.0000 C   0  0  0  0  0  0  0  0  0  0  0  0
    0.6121    1.4782    0.0000 H   0  0  0  0  0  0  0  0  0  0  0  0
   -0.6121    1.4782    0.0000 H   0  0  0  0  0  0  0  0  0  0  0  0
   -1.3856   -0.8000    0.0000 C   0  0  0  0  0  0  0  0  0  0  0  0
   -1.9978   -2.2782    0.0000 H   0  0  0  0  0  0  0  0  0  0  0  0
   -0.7735   -2.2782    0.0000 H   0  0  0  0  0  0  0  0  0  0  0  0
   -2.7713    0.0000    0.0000 C   0  0  0  0  0  0  0  0  0  0  0  0
   -2.1592    1.4782    0.0000 H   0  0  0  0  0  0  0  0  0  0  0  0
   -3.3834    1.4782    0.0000 H   0  0  0  0  0  0  0  0  0  0  0  0
   -4.1569   -0.8000    0.0000 C   0  0  0  0  0  0  0  0  0  0  0  0
   -4.7690   -2.2782    0.0000 H   0  0  0  0  0  0  0  0  0  0  0  0
   -3.5448   -2.2782    0.0000 H   0  0  0  0  0  0  0  0  0  0  0  0
   -5.5426    0.0000    0.0000 C   0  0  0  0  0  0  0  0  0  0  0  0
   -4.9304    1.4782    0.0000 H   0  0  0  0  0  0  0  0  0  0  0  0
   -6.1547    1.4782    0.0000 H   0  0  0  0  0  0  0  0  0  0  0  0
   -6.9282   -0.8000    0.0000 C   0  0  0  0  0  0  0  0  0  0  0  0
   -6.9282   -2.4000    0.0000 O   0  0  0  0  0  0  0  0  0  0  0  0
   -8.3138    0.0000    0.0000 O   0  0  0  0  0  0  0  0  0  0  0  0
   -9.6995   -0.8000    0.0000 C   0  0  0  0  0  0  0  0  0  0  0  0
  -10.3116   -2.2782    0.0000 H   0  0  0  0  0  0  0  0  0  0  0  0
   -9.0874   -2.2782    0.0000 H   0  0  0  0  0  0  0  0  0  0  0  0
  -11.0851    0.0000    0.0000 C   0  0  0  0  0  0  0  0  0  0  0  0
  -12.4708    0.8000    0.0000 H   0  0  0  0  0  0  0  0  0  0  0  0
  -12.4708   -0.8000    0.0000 H   0  0  0  0  0  0  0  0  0  0  0  0
  -11.0851    1.6000    0.0000 H   0  0  0  0  0  0  0  0  0  0  0  0
  1  2  1  0  0  0  0
  1  3  1  0  0  0  0
  1  4  1  0  0  0  0
  1  5  1  0  0  0  0
  5  6  1  0  0  0  0
  5  7  1  0  0  0  0
  5  8  1  0  0  0  0
  8  9  1  0  0  0  0
  9 10  2  0  0  0  0
  9 11  1  0  0  0  0
 11 12  1  0  0  0  0
 11 13  1  0  0  0  0
 11 14  1  0  0  0  0
 14 15  1  0  0  0  0
 14 16  1  0  0  0  0
 14 17  1  0  0  0  0
 17 18  1  0  0  0  0
 17 19  1  0  0  0  0
 17 20  1  0  0  0  0
 20 21  1  0  0  0  0
 20 22  1  0  0  0  0
 20 23  1  0  0  0  0
 23 24  1  0  0  0  0
 23 25  1  0  0  0  0
 23 26  1  0  0  0  0
 26 27  1  0  0  0  0
 26 28  1  0  0  0  0
 26 29  1  0  0  0  0
 29 30  1  0  0  0  0
 29 31  1  0  0  0  0
 29 32  1  0  0  0  0
 32 33  1  0  0  0  0
 32 34  1  0  0  0  0
 32 35  1  0  0  0  0
 35 36  2  0  0  0  0
 35 37  1  0  0  0  0
 37 38  1  0  0  0  0
 38 39  1  0  0  0  0
 38 40  1  0  0  0  0
 38 41  1  0  0  0  0
 41 42  1  0  0  0  0
 41 43  1  0  0  0  0
 41 44  1  0  0  0  0
M  END
> <ChemID>
100779

> <source_casrn>
110-40-7

> <CAS>
110-40-7

> <SMILES>
CCOC(=O)CCCCCCCCC(=O)OCC

> <NAME>
DIETHYL SEBACATE

> <preferred_name>
Diethyl decanedioate

> <iupac>
diethyl decanedioate

> <MPID>
25411

> <dsstox_substance_id>
DTXSID0021915

> <Canonical_QSARr>
CCOC(=O)CCCCCCCCC(=O)OCC

> <InChI_Code_QSARr>
InChI=1S/C14H26O4/c1-3-17-13(15)11-9-7-5-6-8-10-12-14(16)18-4-2/h3-12H2,1-2H3

> <InChI Key_QSARr>
ONKUXPIBXRRIDU-UHFFFAOYSA-N

> <Salt_Solvent>
?

> <LogVP>
-3.2941

$$$$
100783
  -INDIGO-08031723152D

 18 17  0  0  0  0  0  0  0  0999 V2000
   -4.1569    2.4000    0.0000 O   0  0  0  0  0  0  0  0  0  0  0  0
   -4.1569    0.8000    0.0000 C   0  0  0  0  0  0  0  0  0  0  0  0
   -2.7712    0.0000    0.0000 O   0  0  0  0  0  0  0  0  0  0  0  0
   -1.3856    0.8000    0.0000 C   0  0  0  0  0  0  0  0  0  0  0  0
   -0.7734    2.2782    0.0000 H   0  0  0  0  0  0  0  0  0  0  0  0
   -1.9979    2.2782    0.0000 H   0  0  0  0  0  0  0  0  0  0  0  0
   -0.0001    0.0000    0.0000 C   0  0  0  0  0  0  0  0  0  0  0  0
   -0.6122   -1.4782    0.0000 H   0  0  0  0  0  0  0  0  0  0  0  0
    0.6123   -1.4782    0.0000 H   0  0  0  0  0  0  0  0  0  0  0  0
    1.3856    0.8000    0.0000 O   0  0  0  0  0  0  0  0  0  0  0  0
    2.7713    0.0000    0.0000 C   0  0  0  0  0  0  0  0  0  0  0  0
    4.1569   -0.8000    0.0000 H   0  0  0  0  0  0  0  0  0  0  0  0
    4.1569    0.8000    0.0000 H   0  0  0  0  0  0  0  0  0  0  0  0
    2.7713   -1.6000    0.0000 H   0  0  0  0  0  0  0  0  0  0  0  0
   -5.5425    0.0000    0.0000 C   0  0  0  0  0  0  0  0  0  0  0  0
   -6.9282   -0.8000    0.0000 H   0  0  0  0  0  0  0  0  0  0  0  0
   -6.9282    0.8000    0.0000 H   0  0  0  0  0  0  0  0  0  0  0  0
   -5.5425   -1.6000    0.0000 H   0  0  0  0  0  0  0  0  0  0  0  0
  1  2  2  0  0  0  0
  2  3  1  0  0  0  0
  3  4  1  0  0  0  0
  4  5  1  0  0  0  0
  4  6  1  0  0  0  0
  4  7  1  0  0  0  0
  7  8  1  0  0  0  0
  7  9  1  0  0  0  0
  7 10  1  0  0  0  0
 10 11  1  0  0  0  0
 11 12  1  0  0  0  0
 11 13  1  0  0  0  0
 11 14  1  0  0  0  0
  2 15  1  0  0  0  0
 15 16  1  0  0  0  0
 15 17  1  0  0  0  0
 15 18  1  0  0  0  0
M  END
> <ChemID>
100783

> <source_casrn>
110-49-6

> <CAS>
110-49-6

> <SMILES>
COCCOC(C)=O

> <NAME>
2-METHOXYETHYL ACETATE

> <preferred_name>
2-Methoxyethyl acetate

> <iupac>
2-methoxyethyl acetate

> <MPID>
25415

> <dsstox_substance_id>
DTXSID2025553

> <Canonical_QSARr>
COCCOC(C)=O

> <InChI_Code_QSARr>
InChI=1S/C5H10O3/c1-5(6)8-4-3-7-2/h3-4H2,1-2H3

> <InChI Key_QSARr>
XLLIQLLCWZCATF-UHFFFAOYSA-N

> <Salt_Solvent>
?

> <LogVP>
0.301

$$$$
100787
  -INDIGO-08031723152D

 14 13  0  0  0  0  0  0  0  0999 V2000
    1.3856   -2.4000    0.0000 Cl  0  0  0  0  0  0  0  0  0  0  0  0
    1.3856   -0.8000    0.0000 C   0  0  0  0  0  0  0  0  0  0  0  0
    2.7713   -1.6000    0.0000 H   0  0  0  0  0  0  0  0  0  0  0  0
    2.7713    0.0000    0.0000 H   0  0  0  0  0  0  0  0  0  0  0  0
    0.0000    0.0000    0.0000 C   0  0  0  0  0  0  0  0  0  0  0  0
    0.6123    1.4782    0.0000 H   0  0  0  0  0  0  0  0  0  0  0  0
   -0.6123    1.4782    0.0000 H   0  0  0  0  0  0  0  0  0  0  0  0
   -1.3856   -0.8000    0.0000 C   0  0  0  0  0  0  0  0  0  0  0  0
   -1.9980   -2.2782    0.0000 H   0  0  0  0  0  0  0  0  0  0  0  0
   -0.7733   -2.2782    0.0000 H   0  0  0  0  0  0  0  0  0  0  0  0
   -2.7713    0.0000    0.0000 C   0  0  0  0  0  0  0  0  0  0  0  0
   -4.1569    0.8000    0.0000 H   0  0  0  0  0  0  0  0  0  0  0  0
   -4.1569   -0.8000    0.0000 H   0  0  0  0  0  0  0  0  0  0  0  0
   -2.7713    1.6000    0.0000 Cl  0  0  0  0  0  0  0  0  0  0  0  0
  1  2  1  0  0  0  0
  2  3  1  0  0  0  0
  2  4  1  0  0  0  0
  2  5  1  0  0  0  0
  5  6  1  0  0  0  0
  5  7  1  0  0  0  0
  5  8  1  0  0  0  0
  8  9  1  0  0  0  0
  8 10  1  0  0  0  0
  8 11  1  0  0  0  0
 11 12  1  0  0  0  0
 11 13  1  0  0  0  0
 11 14  1  0  0  0  0
M  END
> <ChemID>
100787

> <source_casrn>
110-56-5

> <CAS>
110-56-5

> <SMILES>
ClCCCCCl

> <NAME>
1,4-DICHLOROBUTANE

> <preferred_name>
1,4-Dichlorobutane

> <iupac>
1,4-dichlorobutane

> <MPID>
25419

> <dsstox_substance_id>
DTXSID5021918

> <Canonical_QSARr>
ClCCCCCl

> <InChI_Code_QSARr>
InChI=1S/C4H8Cl2/c5-3-1-2-4-6/h1-4H2

> <InChI Key_QSARr>
KJDRSWPQXHESDQ-UHFFFAOYSA-N

> <Salt_Solvent>
?

> <LogVP>
0.616

$$$$
100791
  -INDIGO-08031723152D

 10  9  0  0  0  0  0  0  0  0999 V2000
   -3.2000   -0.0000    0.0000 N   0  0  0  0  0  0  0  0  0  0  0  0
   -1.6000   -0.0000    0.0000 C   0  0  0  0  0  0  0  0  0  0  0  0
    0.0000   -0.0000    0.0000 C   0  0  0  0  0  0  0  0  0  0  0  0
    0.2089    1.5863    0.0000 H   0  0  0  0  0  0  0  0  0  0  0  0
    1.2694    0.9740    0.0000 H   0  0  0  0  0  0  0  0  0  0  0  0
    0.8000   -1.3856    0.0000 C   0  0  0  0  0  0  0  0  0  0  0  0
    0.5911   -2.9720    0.0000 H   0  0  0  0  0  0  0  0  0  0  0  0
   -0.4694   -2.3597    0.0000 H   0  0  0  0  0  0  0  0  0  0  0  0
    2.4000   -1.3856    0.0000 C   0  0  0  0  0  0  0  0  0  0  0  0
    4.0000   -1.3856    0.0000 N   0  0  0  0  0  0  0  0  0  0  0  0
  1  2  3  0  0  0  0
  2  3  1  0  0  0  0
  3  4  1  0  0  0  0
  3  5  1  0  0  0  0
  3  6  1  0  0  0  0
  6  7  1  0  0  0  0
  6  8  1  0  0  0  0
  6  9  1  0  0  0  0
  9 10  3  0  0  0  0
M  END
> <ChemID>
100791

> <source_casrn>
110-61-2

> <CAS>
110-61-2

> <SMILES>
N#CCCC#N

> <NAME>
SUCCINONITRILE

> <preferred_name>
Succinonitrile

> <iupac>
butanedinitrile

> <MPID>
25423

> <dsstox_substance_id>
DTXSID9026059

> <Canonical_QSARr>
N#CCCC#N

> <InChI_Code_QSARr>
InChI=1S/C4H4N2/c5-3-1-2-4-6/h1-2H2

> <InChI Key_QSARr>
IAHFWCOBPZCAEA-UHFFFAOYSA-N

> <Salt_Solvent>
?

> <LogVP>
-2.109

$$$$
100795
  -INDIGO-08031723152D

 18 17  0  0  0  0  0  0  0  0999 V2000
    4.1569    0.8000    0.0000 S   0  0  0  0  0  0  0  0  0  0  0  0
    5.5426   -0.0000    0.0000 H   0  0  0  0  0  0  0  0  0  0  0  0
    2.7713   -0.0000    0.0000 C   0  0  0  0  0  0  0  0  0  0  0  0
    3.3836   -1.4782    0.0000 H   0  0  0  0  0  0  0  0  0  0  0  0
    2.1590   -1.4782    0.0000 H   0  0  0  0  0  0  0  0  0  0  0  0
    1.3857    0.8000    0.0000 C   0  0  0  0  0  0  0  0  0  0  0  0
    0.7734    2.2782    0.0000 H   0  0  0  0  0  0  0  0  0  0  0  0
    1.9980    2.2782    0.0000 H   0  0  0  0  0  0  0  0  0  0  0  0
   -0.0001   -0.0000    0.0000 C   0  0  0  0  0  0  0  0  0  0  0  0
    0.6122   -1.4782    0.0000 H   0  0  0  0  0  0  0  0  0  0  0  0
   -0.6124   -1.4782    0.0000 H   0  0  0  0  0  0  0  0  0  0  0  0
   -1.3857    0.8000    0.0000 C   0  0  0  0  0  0  0  0  0  0  0  0
   -1.9980    2.2782    0.0000 H   0  0  0  0  0  0  0  0  0  0  0  0
   -0.7734    2.2782    0.0000 H   0  0  0  0  0  0  0  0  0  0  0  0
   -2.7713   -0.0000    0.0000 C   0  0  0  0  0  0  0  0  0  0  0  0
   -4.1569   -0.8000    0.0000 H   0  0  0  0  0  0  0  0  0  0  0  0
   -4.1569    0.8000    0.0000 H   0  0  0  0  0  0  0  0  0  0  0  0
   -2.7713   -1.6000    0.0000 H   0  0  0  0  0  0  0  0  0  0  0  0
  1  2  1  0  0  0  0
  1  3  1  0  0  0  0
  3  4  1  0  0  0  0
  3  5  1  0  0  0  0
  3  6  1  0  0  0  0
  6  7  1  0  0  0  0
  6  8  1  0  0  0  0
  6  9  1  0  0  0  0
  9 10  1  0  0  0  0
  9 11  1  0  0  0  0
  9 12  1  0  0  0  0
 12 13  1  0  0  0  0
 12 14  1  0  0  0  0
 12 15  1  0  0  0  0
 15 16  1  0  0  0  0
 15 17  1  0  0  0  0
 15 18  1  0  0  0  0
M  END
> <ChemID>
100795

> <source_casrn>
110-66-7

> <CAS>
110-66-7

> <SMILES>
CCCCCS

> <NAME>
1-PENTANETHIOL

> <preferred_name>
Pentyl mercaptan

> <iupac>
pentane-1-thiol

> <MPID>
25427

> <dsstox_substance_id>
DTXSID9041605

> <Canonical_QSARr>
CCCCCS

> <InChI_Code_QSARr>
InChI=1S/C5H12S/c1-2-3-4-5-6/h6H,2-5H2,1H3

> <InChI Key_QSARr>
ZRKMQKLGEQPLNS-UHFFFAOYSA-N

> <Salt_Solvent>
?

> <LogVP>
1.1399

$$$$
100799
  -INDIGO-08031723152D

 16 15  0  0  0  0  0  0  0  0999 V2000
    2.7713    0.0000    0.0000 O   0  0  0  0  0  0  0  0  0  0  0  0
    4.1569    0.8000    0.0000 H   0  0  0  0  0  0  0  0  0  0  0  0
    1.3857    0.8000    0.0000 C   0  0  0  0  0  0  0  0  0  0  0  0
    0.7734    2.2782    0.0000 H   0  0  0  0  0  0  0  0  0  0  0  0
    1.9980    2.2782    0.0000 H   0  0  0  0  0  0  0  0  0  0  0  0
    0.0001    0.0000    0.0000 C   0  0  0  0  0  0  0  0  0  0  0  0
    0.6124   -1.4782    0.0000 H   0  0  0  0  0  0  0  0  0  0  0  0
   -0.6122   -1.4782    0.0000 H   0  0  0  0  0  0  0  0  0  0  0  0
   -1.3857    0.8000    0.0000 O   0  0  0  0  0  0  0  0  0  0  0  0
   -2.7713    0.0000    0.0000 C   0  0  0  0  0  0  0  0  0  0  0  0
   -2.1590   -1.4782    0.0000 H   0  0  0  0  0  0  0  0  0  0  0  0
   -3.3836   -1.4782    0.0000 H   0  0  0  0  0  0  0  0  0  0  0  0
   -4.1569    0.8000    0.0000 C   0  0  0  0  0  0  0  0  0  0  0  0
   -5.5426    1.6000    0.0000 H   0  0  0  0  0  0  0  0  0  0  0  0
   -5.5426    0.0000    0.0000 H   0  0  0  0  0  0  0  0  0  0  0  0
   -4.1569    2.4000    0.0000 H   0  0  0  0  0  0  0  0  0  0  0  0
  1  2  1  0  0  0  0
  1  3  1  0  0  0  0
  3  4  1  0  0  0  0
  3  5  1  0  0  0  0
  3  6  1  0  0  0  0
  6  7  1  0  0  0  0
  6  8  1  0  0  0  0
  6  9  1  0  0  0  0
  9 10  1  0  0  0  0
 10 11  1  0  0  0  0
 10 12  1  0  0  0  0
 10 13  1  0  0  0  0
 13 14  1  0  0  0  0
 13 15  1  0  0  0  0
 13 16  1  0  0  0  0
M  END
> <ChemID>
100799

> <source_casrn>
110-80-5

> <CAS>
110-80-5

> <SMILES>
CCOCCO

> <NAME>
2-Ethoxyethanol

> <preferred_name>
2-Ethoxyethanol

> <iupac>
2-ethoxyethanol

> <MPID>
25431

> <dsstox_substance_id>
DTXSID7024087

> <Canonical_QSARr>
CCOCCO

> <InChI_Code_QSARr>
InChI=1S/C4H10O2/c1-2-6-4-3-5/h5H,2-4H2,1H3

> <InChI Key_QSARr>
ZNQVEEAIQZEUHB-UHFFFAOYSA-N

> <Salt_Solvent>
?

> <LogVP>
0.7251

$$$$
100803
  -INDIGO-08031723152D

 16 16  0  0  0  0  0  0  0  0999 V2000
    0.0000    0.0000    0.0000 C   0  0  0  0  0  0  0  0  0  0  0  0
    0.5472    1.5035    0.0000 H   0  0  0  0  0  0  0  0  0  0  0  0
    1.5757   -0.2778    0.0000 H   0  0  0  0  0  0  0  0  0  0  0  0
   -1.3857    0.8000    0.0000 C   0  0  0  0  0  0  0  0  0  0  0  0
   -0.3571    2.0257    0.0000 H   0  0  0  0  0  0  0  0  0  0  0  0
   -2.4141    2.0257    0.0000 H   0  0  0  0  0  0  0  0  0  0  0  0
   -2.7713    0.0000    0.0000 N   0  0  0  0  0  0  0  0  0  0  0  0
   -4.1569    0.8000    0.0000 H   0  0  0  0  0  0  0  0  0  0  0  0
   -2.7713   -1.6000    0.0000 C   0  0  0  0  0  0  0  0  0  0  0  0
   -4.3470   -1.3222    0.0000 H   0  0  0  0  0  0  0  0  0  0  0  0
   -3.3185   -3.1035    0.0000 H   0  0  0  0  0  0  0  0  0  0  0  0
   -1.3856   -2.4000    0.0000 C   0  0  0  0  0  0  0  0  0  0  0  0
   -2.4141   -3.6257    0.0000 H   0  0  0  0  0  0  0  0  0  0  0  0
   -0.3571   -3.6257    0.0000 H   0  0  0  0  0  0  0  0  0  0  0  0
    0.0000   -1.6000    0.0000 N   0  0  0  0  0  0  0  0  0  0  0  0
    1.3856   -2.4000    0.0000 H   0  0  0  0  0  0  0  0  0  0  0  0
  1  2  1  0  0  0  0
  1  3  1  0  0  0  0
  1  4  1  0  0  0  0
  4  5  1  0  0  0  0
  4  6  1  0  0  0  0
  4  7  1  0  0  0  0
  7  8  1  0  0  0  0
  7  9  1  0  0  0  0
  9 10  1  0  0  0  0
  9 11  1  0  0  0  0
  9 12  1  0  0  0  0
 12 13  1  0  0  0  0
 12 14  1  0  0  0  0
 12 15  1  0  0  0  0
 15  1  1  0  0  0  0
 15 16  1  0  0  0  0
M  END
> <ChemID>
100803

> <source_casrn>
110-85-0

> <CAS>
110-85-0

> <SMILES>
C1CNCCN1

> <NAME>
PIPERAZINE

> <preferred_name>
Piperazine

> <iupac>
piperazine

> <MPID>
25435

> <dsstox_substance_id>
DTXSID1021164

> <Canonical_QSARr>
C1CNCCN1

> <InChI_Code_QSARr>
InChI=1S/C4H10N2/c1-2-6-4-3-5-1/h5-6H,1-4H2

> <InChI Key_QSARr>
GLUUGHFHXGJENI-UHFFFAOYSA-N

> <Salt_Solvent>
?

> <LogVP>
-0.7959

$$$$
100807
  -INDIGO-08031723152D

 15 15  0  0  0  0  0  0  0  0999 V2000
    0.0000    0.0000    0.0000 C   0  0  0  0  0  0  0  0  0  0  0  0
    1.5757    0.2778    0.0000 H   0  0  0  0  0  0  0  0  0  0  0  0
    0.5472   -1.5035    0.0000 H   0  0  0  0  0  0  0  0  0  0  0  0
    0.0000    1.6000    0.0000 C   0  0  0  0  0  0  0  0  0  0  0  0
    1.5757    1.3222    0.0000 H   0  0  0  0  0  0  0  0  0  0  0  0
    0.5472    3.1035    0.0000 H   0  0  0  0  0  0  0  0  0  0  0  0
   -1.3856    2.4000    0.0000 O   0  0  0  0  0  0  0  0  0  0  0  0
   -2.7713    1.6000    0.0000 C   0  0  0  0  0  0  0  0  0  0  0  0
   -3.3185    3.1035    0.0000 H   0  0  0  0  0  0  0  0  0  0  0  0
   -4.3470    1.3222    0.0000 H   0  0  0  0  0  0  0  0  0  0  0  0
   -2.7713    0.0000    0.0000 C   0  0  0  0  0  0  0  0  0  0  0  0
   -4.3470    0.2778    0.0000 H   0  0  0  0  0  0  0  0  0  0  0  0
   -3.3185   -1.5035    0.0000 H   0  0  0  0  0  0  0  0  0  0  0  0
   -1.3856   -0.8000    0.0000 N   0  0  0  0  0  0  0  0  0  0  0  0
   -1.3856   -2.4000    0.0000 H   0  0  0  0  0  0  0  0  0  0  0  0
  1  2  1  0  0  0  0
  1  3  1  0  0  0  0
  1  4  1  0  0  0  0
  4  5  1  0  0  0  0
  4  6  1  0  0  0  0
  4  7  1  0  0  0  0
  7  8  1  0  0  0  0
  8  9  1  0  0  0  0
  8 10  1  0  0  0  0
  8 11  1  0  0  0  0
 11 12  1  0  0  0  0
 11 13  1  0  0  0  0
 11 14  1  0  0  0  0
 14  1  1  0  0  0  0
 14 15  1  0  0  0  0
M  END
> <ChemID>
100807

> <source_casrn>
110-91-8

> <CAS>
110-91-8

> <SMILES>
C1COCCN1

> <NAME>
MORPHOLINE

> <preferred_name>
Morpholine

> <iupac>
morpholine

> <MPID>
25439

> <dsstox_substance_id>
DTXSID2025688

> <Canonical_QSARr>
C1COCCN1

> <InChI_Code_QSARr>
InChI=1S/C4H9NO/c1-3-6-4-2-5-1/h5H,1-4H2

> <InChI Key_QSARr>
YNAVUWVOSKDBBP-UHFFFAOYSA-N

> <Salt_Solvent>
?

> <LogVP>
1.0035

$$$$
100811
  -INDIGO-08031723152D

 29 28  0  0  0  0  0  0  0  0999 V2000
   -5.5426    0.0000    0.0000 C   0  0  0  0  0  0  0  0  0  0  0  0
   -4.1569    0.8000    0.0000 C   0  0  0  0  0  0  0  0  0  0  0  0
   -3.5445    2.2782    0.0000 H   0  0  0  0  0  0  0  0  0  0  0  0
   -4.7693    2.2782    0.0000 H   0  0  0  0  0  0  0  0  0  0  0  0
   -2.7712    0.0000    0.0000 C   0  0  0  0  0  0  0  0  0  0  0  0
   -3.3836   -1.4782    0.0000 H   0  0  0  0  0  0  0  0  0  0  0  0
   -2.1591   -1.4782    0.0000 H   0  0  0  0  0  0  0  0  0  0  0  0
   -1.3857    0.8000    0.0000 C   0  0  0  0  0  0  0  0  0  0  0  0
   -0.7733    2.2782    0.0000 H   0  0  0  0  0  0  0  0  0  0  0  0
   -1.9979    2.2782    0.0000 H   0  0  0  0  0  0  0  0  0  0  0  0
   -0.0000    0.0000    0.0000 C   0  0  0  0  0  0  0  0  0  0  0  0
   -0.6124   -1.4782    0.0000 H   0  0  0  0  0  0  0  0  0  0  0  0
    0.6124   -1.4782    0.0000 H   0  0  0  0  0  0  0  0  0  0  0  0
    1.3857    0.8000    0.0000 C   0  0  0  0  0  0  0  0  0  0  0  0
    1.9978    2.2782    0.0000 H   0  0  0  0  0  0  0  0  0  0  0  0
    0.7733    2.2782    0.0000 H   0  0  0  0  0  0  0  0  0  0  0  0
    2.7714    0.0000    0.0000 C   0  0  0  0  0  0  0  0  0  0  0  0
    2.1590   -1.4782    0.0000 H   0  0  0  0  0  0  0  0  0  0  0  0
    3.3835   -1.4782    0.0000 H   0  0  0  0  0  0  0  0  0  0  0  0
    4.1569    0.8000    0.0000 C   0  0  0  0  0  0  0  0  0  0  0  0
    5.5426    1.6000    0.0000 H   0  0  0  0  0  0  0  0  0  0  0  0
    5.5426    0.0000    0.0000 H   0  0  0  0  0  0  0  0  0  0  0  0
    4.1569    2.4000    0.0000 H   0  0  0  0  0  0  0  0  0  0  0  0
   -6.9283    0.8000    0.0000 O   0  0  0  0  0  0  0  0  0  0  0  0
   -8.3138    0.0000    0.0000 C   0  0  0  0  0  0  0  0  0  0  0  0
   -9.6995   -0.8000    0.0000 H   0  0  0  0  0  0  0  0  0  0  0  0
   -9.6995    0.8000    0.0000 H   0  0  0  0  0  0  0  0  0  0  0  0
   -8.3138   -1.6000    0.0000 H   0  0  0  0  0  0  0  0  0  0  0  0
   -5.5426   -1.6000    0.0000 O   0  0  0  0  0  0  0  0  0  0  0  0
  1  2  1  0  0  0  0
  2  3  1  0  0  0  0
  2  4  1  0  0  0  0
  2  5  1  0  0  0  0
  5  6  1  0  0  0  0
  5  7  1  0  0  0  0
  5  8  1  0  0  0  0
  8  9  1  0  0  0  0
  8 10  1  0  0  0  0
  8 11  1  0  0  0  0
 11 12  1  0  0  0  0
 11 13  1  0  0  0  0
 11 14  1  0  0  0  0
 14 15  1  0  0  0  0
 14 16  1  0  0  0  0
 14 17  1  0  0  0  0
 17 18  1  0  0  0  0
 17 19  1  0  0  0  0
 17 20  1  0  0  0  0
 20 21  1  0  0  0  0
 20 22  1  0  0  0  0
 20 23  1  0  0  0  0
  1 24  1  0  0  0  0
 24 25  1  0  0  0  0
 25 26  1  0  0  0  0
 25 27  1  0  0  0  0
 25 28  1  0  0  0  0
  1 29  2  0  0  0  0
M  END
> <ChemID>
100811

> <source_casrn>
111-11-5

> <CAS>
111-11-5

> <SMILES>
CCCCCCCC(=O)OC

> <NAME>
METHYL OCTANOATE

> <preferred_name>
Methyl octanoate

> <iupac>
methyl octanoate

> <MPID>
25443

> <dsstox_substance_id>
DTXSID2026864

> <Canonical_QSARr>
CCCCCCCC(=O)OC

> <InChI_Code_QSARr>
InChI=1S/C9H18O2/c1-3-4-5-6-7-8-9(10)11-2/h3-8H2,1-2H3

> <InChI Key_QSARr>
JGHZJRVDZXSNKQ-UHFFFAOYSA-N

> <Salt_Solvent>
?

> <LogVP>
-0.2673

$$$$
100815
  -INDIGO-08031723152D

 23 22  0  0  0  0  0  0  0  0999 V2000
    5.5427    0.0000    0.0000 O   0  0  0  0  0  0  0  0  0  0  0  0
    6.9282    0.8000    0.0000 H   0  0  0  0  0  0  0  0  0  0  0  0
    4.1569    0.8000    0.0000 C   0  0  0  0  0  0  0  0  0  0  0  0
    2.7714    0.0000    0.0000 C   0  0  0  0  0  0  0  0  0  0  0  0
    3.3835   -1.4782    0.0000 H   0  0  0  0  0  0  0  0  0  0  0  0
    2.1591   -1.4782    0.0000 H   0  0  0  0  0  0  0  0  0  0  0  0
    1.3856    0.8000    0.0000 C   0  0  0  0  0  0  0  0  0  0  0  0
    0.7733    2.2782    0.0000 H   0  0  0  0  0  0  0  0  0  0  0  0
    1.9980    2.2782    0.0000 H   0  0  0  0  0  0  0  0  0  0  0  0
    0.0001    0.0000    0.0000 C   0  0  0  0  0  0  0  0  0  0  0  0
    0.6122   -1.4782    0.0000 H   0  0  0  0  0  0  0  0  0  0  0  0
   -0.6122   -1.4782    0.0000 H   0  0  0  0  0  0  0  0  0  0  0  0
   -1.3856    0.8000    0.0000 C   0  0  0  0  0  0  0  0  0  0  0  0
   -1.9980    2.2782    0.0000 H   0  0  0  0  0  0  0  0  0  0  0  0
   -0.7733    2.2782    0.0000 H   0  0  0  0  0  0  0  0  0  0  0  0
   -2.7712    0.0000    0.0000 C   0  0  0  0  0  0  0  0  0  0  0  0
   -2.1591   -1.4782    0.0000 H   0  0  0  0  0  0  0  0  0  0  0  0
   -3.3835   -1.4782    0.0000 H   0  0  0  0  0  0  0  0  0  0  0  0
   -4.1569    0.8000    0.0000 C   0  0  0  0  0  0  0  0  0  0  0  0
   -5.5425    0.0000    0.0000 O   0  0  0  0  0  0  0  0  0  0  0  0
   -6.9282    0.8000    0.0000 H   0  0  0  0  0  0  0  0  0  0  0  0
   -4.1569    2.4000    0.0000 O   0  0  0  0  0  0  0  0  0  0  0  0
    4.1569    2.4000    0.0000 O   0  0  0  0  0  0  0  0  0  0  0  0
  1  2  1  0  0  0  0
  1  3  1  0  0  0  0
  3  4  1  0  0  0  0
  4  5  1  0  0  0  0
  4  6  1  0  0  0  0
  4  7  1  0  0  0  0
  7  8  1  0  0  0  0
  7  9  1  0  0  0  0
  7 10  1  0  0  0  0
 10 11  1  0  0  0  0
 10 12  1  0  0  0  0
 10 13  1  0  0  0  0
 13 14  1  0  0  0  0
 13 15  1  0  0  0  0
 13 16  1  0  0  0  0
 16 17  1  0  0  0  0
 16 18  1  0  0  0  0
 16 19  1  0  0  0  0
 19 20  1  0  0  0  0
 20 21  1  0  0  0  0
 19 22  2  0  0  0  0
  3 23  2  0  0  0  0
M  END
> <ChemID>
100815

> <source_casrn>
111-16-0

> <CAS>
111-16-0

> <SMILES>
OC(=O)CCCCCC(O)=O

> <NAME>
PIMELIC ACID

> <preferred_name>
Heptanedioic acid

> <iupac>
heptanedioic acid

> <MPID>
25447

> <dsstox_substance_id>
DTXSID5021598

> <Canonical_QSARr>
OC(=O)CCCCCC(O)=O

> <InChI_Code_QSARr>
InChI=1S/C7H12O4/c8-6(9)4-2-1-3-5-7(10)11/h1-5H2,(H,8,9)(H,10,11)

> <InChI Key_QSARr>
WLJVNTCWHIRURA-UHFFFAOYSA-N

> <Salt_Solvent>
?

> <LogVP>
-7.0458

$$$$
100819
  -INDIGO-08031723152D

 21 20  0  0  0  0  0  0  0  0999 V2000
    4.1569    0.8000    0.0000 C   0  0  0  0  0  0  0  0  0  0  0  0
    5.5426    1.6000    0.0000 H   0  0  0  0  0  0  0  0  0  0  0  0
    5.5426    0.0000    0.0000 H   0  0  0  0  0  0  0  0  0  0  0  0
    4.1569    2.4000    0.0000 H   0  0  0  0  0  0  0  0  0  0  0  0
    2.7712    0.0000    0.0000 C   0  0  0  0  0  0  0  0  0  0  0  0
    3.3836   -1.4782    0.0000 H   0  0  0  0  0  0  0  0  0  0  0  0
    2.1589   -1.4782    0.0000 H   0  0  0  0  0  0  0  0  0  0  0  0
    1.3856    0.8000    0.0000 C   0  0  0  0  0  0  0  0  0  0  0  0
    0.7734    2.2782    0.0000 H   0  0  0  0  0  0  0  0  0  0  0  0
    1.9979    2.2782    0.0000 H   0  0  0  0  0  0  0  0  0  0  0  0
    0.0001    0.0000    0.0000 C   0  0  0  0  0  0  0  0  0  0  0  0
    0.6122   -1.4782    0.0000 H   0  0  0  0  0  0  0  0  0  0  0  0
   -0.6122   -1.4782    0.0000 H   0  0  0  0  0  0  0  0  0  0  0  0
   -1.3856    0.8000    0.0000 C   0  0  0  0  0  0  0  0  0  0  0  0
   -1.9979    2.2782    0.0000 H   0  0  0  0  0  0  0  0  0  0  0  0
   -0.7734    2.2782    0.0000 H   0  0  0  0  0  0  0  0  0  0  0  0
   -2.7712    0.0000    0.0000 C   0  0  0  0  0  0  0  0  0  0  0  0
   -2.1589   -1.4782    0.0000 H   0  0  0  0  0  0  0  0  0  0  0  0
   -3.3836   -1.4782    0.0000 H   0  0  0  0  0  0  0  0  0  0  0  0
   -4.1569    0.8000    0.0000 O   0  0  0  0  0  0  0  0  0  0  0  0
   -5.5426    0.0000    0.0000 H   0  0  0  0  0  0  0  0  0  0  0  0
  1  2  1  0  0  0  0
  1  3  1  0  0  0  0
  1  4  1  0  0  0  0
  1  5  1  0  0  0  0
  5  6  1  0  0  0  0
  5  7  1  0  0  0  0
  5  8  1  0  0  0  0
  8  9  1  0  0  0  0
  8 10  1  0  0  0  0
  8 11  1  0  0  0  0
 11 12  1  0  0  0  0
 11 13  1  0  0  0  0
 11 14  1  0  0  0  0
 14 15  1  0  0  0  0
 14 16  1  0  0  0  0
 14 17  1  0  0  0  0
 17 18  1  0  0  0  0
 17 19  1  0  0  0  0
 17 20  1  0  0  0  0
 20 21  1  0  0  0  0
M  END
> <ChemID>
100819

> <source_casrn>
111-27-3

> <CAS>
111-27-3

> <SMILES>
CCCCCCO

> <NAME>
1-HEXANOL

> <preferred_name>
1-Hexanol

> <iupac>
hexan-1-ol

> <MPID>
25451

> <dsstox_substance_id>
DTXSID8021931

> <Canonical_QSARr>
CCCCCCO

> <InChI_Code_QSARr>
InChI=1S/C6H14O/c1-2-3-4-5-6-7/h7H,2-6H2,1H3

> <InChI Key_QSARr>
ZSIAUFGUXNUGDI-UHFFFAOYSA-N

> <Salt_Solvent>
?

> <LogVP>
-0.0325

$$$$
100823
  -INDIGO-08031723152D

 19 18  0  0  0  0  0  0  0  0999 V2000
    1.3857    0.8000    0.0000 C   0  0  0  0  0  0  0  0  0  0  0  0
    1.9979    2.2782    0.0000 H   0  0  0  0  0  0  0  0  0  0  0  0
    0.7734    2.2782    0.0000 H   0  0  0  0  0  0  0  0  0  0  0  0
    0.0001    0.0000    0.0000 C   0  0  0  0  0  0  0  0  0  0  0  0
   -0.6123   -1.4782    0.0000 H   0  0  0  0  0  0  0  0  0  0  0  0
    0.6122   -1.4782    0.0000 H   0  0  0  0  0  0  0  0  0  0  0  0
   -1.3856    0.8000    0.0000 C   0  0  0  0  0  0  0  0  0  0  0  0
   -0.7733    2.2782    0.0000 H   0  0  0  0  0  0  0  0  0  0  0  0
   -1.9979    2.2782    0.0000 H   0  0  0  0  0  0  0  0  0  0  0  0
   -2.7713    0.0000    0.0000 C   0  0  0  0  0  0  0  0  0  0  0  0
   -4.1569   -0.8000    0.0000 H   0  0  0  0  0  0  0  0  0  0  0  0
   -4.1569    0.8000    0.0000 H   0  0  0  0  0  0  0  0  0  0  0  0
   -2.7713   -1.6000    0.0000 H   0  0  0  0  0  0  0  0  0  0  0  0
    2.7712    0.0000    0.0000 O   0  0  0  0  0  0  0  0  0  0  0  0
    4.1569    0.8000    0.0000 C   0  0  0  0  0  0  0  0  0  0  0  0
    4.1569    2.4000    0.0000 H   0  0  0  0  0  0  0  0  0  0  0  0
    5.5425    0.0000    0.0000 C   0  0  0  0  0  0  0  0  0  0  0  0
    6.9282    0.8000    0.0000 H   0  0  0  0  0  0  0  0  0  0  0  0
    5.5425   -1.6000    0.0000 H   0  0  0  0  0  0  0  0  0  0  0  0
  1  2  1  0  0  0  0
  1  3  1  0  0  0  0
  1  4  1  0  0  0  0
  4  5  1  0  0  0  0
  4  6  1  0  0  0  0
  4  7  1  0  0  0  0
  7  8  1  0  0  0  0
  7  9  1  0  0  0  0
  7 10  1  0  0  0  0
 10 11  1  0  0  0  0
 10 12  1  0  0  0  0
 10 13  1  0  0  0  0
  1 14  1  0  0  0  0
 14 15  1  0  0  0  0
 15 16  1  0  0  0  0
 15 17  2  0  0  0  0
 17 18  1  0  0  0  0
 17 19  1  0  0  0  0
M  END
> <ChemID>
100823

> <source_casrn>
111-34-2

> <CAS>
111-34-2

> <SMILES>
CCCCOC=C

> <NAME>
BUTYL VINYL ETHER

> <preferred_name>
Butyl vinyl ether

> <iupac>
butyl vinyl ether

> <MPID>
25455

> <dsstox_substance_id>
DTXSID5051575

> <Canonical_QSARr>
CCCCOC=C

> <InChI_Code_QSARr>
InChI=1S/C6H12O/c1-3-5-6-7-4-2/h4H,2-3,5-6H2,1H3

> <InChI Key_QSARr>
UZKWTJUDCOPSNM-UHFFFAOYSA-N

> <Salt_Solvent>
?

> <LogVP>
1.6911

$$$$
100827
  -INDIGO-08031723152D

 18 17  0  0  0  0  0  0  0  0999 V2000
    2.7713    0.0000    0.0000 O   0  0  0  0  0  0  0  0  0  0  0  0
    4.1569    0.8000    0.0000 H   0  0  0  0  0  0  0  0  0  0  0  0
    1.3856    0.8000    0.0000 C   0  0  0  0  0  0  0  0  0  0  0  0
    1.9979    2.2782    0.0000 H   0  0  0  0  0  0  0  0  0  0  0  0
    0.7733    2.2782    0.0000 H   0  0  0  0  0  0  0  0  0  0  0  0
   -0.0001    0.0000    0.0000 C   0  0  0  0  0  0  0  0  0  0  0  0
   -0.6122   -1.4782    0.0000 H   0  0  0  0  0  0  0  0  0  0  0  0
    0.6123   -1.4782    0.0000 H   0  0  0  0  0  0  0  0  0  0  0  0
   -1.3856    0.8000    0.0000 N   0  0  0  0  0  0  0  0  0  0  0  0
   -1.3856    2.4000    0.0000 H   0  0  0  0  0  0  0  0  0  0  0  0
   -2.7712    0.0000    0.0000 C   0  0  0  0  0  0  0  0  0  0  0  0
   -3.3835   -1.4782    0.0000 H   0  0  0  0  0  0  0  0  0  0  0  0
   -2.1591   -1.4782    0.0000 H   0  0  0  0  0  0  0  0  0  0  0  0
   -4.1569    0.8000    0.0000 C   0  0  0  0  0  0  0  0  0  0  0  0
   -3.5446    2.2782    0.0000 H   0  0  0  0  0  0  0  0  0  0  0  0
   -4.7692    2.2782    0.0000 H   0  0  0  0  0  0  0  0  0  0  0  0
   -5.5425    0.0000    0.0000 O   0  0  0  0  0  0  0  0  0  0  0  0
   -6.9282    0.8000    0.0000 H   0  0  0  0  0  0  0  0  0  0  0  0
  1  2  1  0  0  0  0
  1  3  1  0  0  0  0
  3  4  1  0  0  0  0
  3  5  1  0  0  0  0
  3  6  1  0  0  0  0
  6  7  1  0  0  0  0
  6  8  1  0  0  0  0
  6  9  1  0  0  0  0
  9 10  1  0  0  0  0
  9 11  1  0  0  0  0
 11 12  1  0  0  0  0
 11 13  1  0  0  0  0
 11 14  1  0  0  0  0
 14 15  1  0  0  0  0
 14 16  1  0  0  0  0
 14 17  1  0  0  0  0
 17 18  1  0  0  0  0
M  END
> <ChemID>
100827

> <source_casrn>
111-42-2

> <CAS>
111-42-2

> <SMILES>
OCCNCCO

> <NAME>
DIETHANOLAMINE

> <preferred_name>
Diethanolamine

> <iupac>
2,2'-iminodiethanol

> <MPID>
25459

> <dsstox_substance_id>
DTXSID3021932

> <Canonical_QSARr>
OCCNCCO

> <InChI_Code_QSARr>
InChI=1S/C4H11NO2/c6-3-1-5-2-4-7/h5-7H,1-4H2

> <InChI Key_QSARr>
ZBCBWPMODOFKDW-UHFFFAOYSA-N

> <Salt_Solvent>
?

> <LogVP>
-3.5528

$$$$
100831
  -INDIGO-08031723152D

 21 20  0  0  0  0  0  0  0  0999 V2000
    1.3856    0.8000    0.0000 C   0  0  0  0  0  0  0  0  0  0  0  0
    2.7713    1.6000    0.0000 H   0  0  0  0  0  0  0  0  0  0  0  0
    2.7713    0.0000    0.0000 H   0  0  0  0  0  0  0  0  0  0  0  0
    1.3856    2.4000    0.0000 H   0  0  0  0  0  0  0  0  0  0  0  0
   -0.0000    0.0000    0.0000 C   0  0  0  0  0  0  0  0  0  0  0  0
   -0.6124   -1.4782    0.0000 H   0  0  0  0  0  0  0  0  0  0  0  0
    0.6123   -1.4782    0.0000 H   0  0  0  0  0  0  0  0  0  0  0  0
   -1.3857    0.8000    0.0000 C   0  0  0  0  0  0  0  0  0  0  0  0
   -0.7734    2.2782    0.0000 H   0  0  0  0  0  0  0  0  0  0  0  0
   -1.9979    2.2782    0.0000 H   0  0  0  0  0  0  0  0  0  0  0  0
   -2.7712    0.0000    0.0000 S   0  0  0  0  0  0  0  0  0  0  0  0
   -4.1569    0.8000    0.0000 C   0  0  0  0  0  0  0  0  0  0  0  0
   -3.5447    2.2782    0.0000 H   0  0  0  0  0  0  0  0  0  0  0  0
   -4.7692    2.2782    0.0000 H   0  0  0  0  0  0  0  0  0  0  0  0
   -5.5425    0.0000    0.0000 C   0  0  0  0  0  0  0  0  0  0  0  0
   -6.1548   -1.4782    0.0000 H   0  0  0  0  0  0  0  0  0  0  0  0
   -4.9302   -1.4782    0.0000 H   0  0  0  0  0  0  0  0  0  0  0  0
   -6.9282    0.8000    0.0000 C   0  0  0  0  0  0  0  0  0  0  0  0
   -8.3138    1.6000    0.0000 H   0  0  0  0  0  0  0  0  0  0  0  0
   -8.3138    0.0000    0.0000 H   0  0  0  0  0  0  0  0  0  0  0  0
   -6.9282    2.4000    0.0000 H   0  0  0  0  0  0  0  0  0  0  0  0
  1  2  1  0  0  0  0
  1  3  1  0  0  0  0
  1  4  1  0  0  0  0
  1  5  1  0  0  0  0
  5  6  1  0  0  0  0
  5  7  1  0  0  0  0
  5  8  1  0  0  0  0
  8  9  1  0  0  0  0
  8 10  1  0  0  0  0
  8 11  1  0  0  0  0
 11 12  1  0  0  0  0
 12 13  1  0  0  0  0
 12 14  1  0  0  0  0
 12 15  1  0  0  0  0
 15 16  1  0  0  0  0
 15 17  1  0  0  0  0
 15 18  1  0  0  0  0
 18 19  1  0  0  0  0
 18 20  1  0  0  0  0
 18 21  1  0  0  0  0
M  END
> <ChemID>
100831

> <source_casrn>
111-47-7

> <CAS>
111-47-7

> <SMILES>
CCCSCCC

> <NAME>
DI-N-PROPYLSULFIDE

> <preferred_name>
Propyl sulfide

> <iupac>
dipropyl sulfide

> <MPID>
25463

> <dsstox_substance_id>
DTXSID3021934

> <Canonical_QSARr>
CCCSCCC

> <InChI_Code_QSARr>
InChI=1S/C6H14S/c1-3-5-7-6-4-2/h3-6H2,1-2H3

> <InChI Key_QSARr>
ZERULLAPCVRMCO-UHFFFAOYSA-N

> <Salt_Solvent>
?

> <LogVP>
0.8098

$$$$
100835
  -INDIGO-08031723152D

 62 61  0  0  0  0  0  0  0  0999 V2000
    8.3139    0.0000    0.0000 C   0  0  0  0  0  0  0  0  0  0  0  0
    8.9261    1.4782    0.0000 H   0  0  0  0  0  0  0  0  0  0  0  0
    7.7018    1.4782    0.0000 H   0  0  0  0  0  0  0  0  0  0  0  0
    6.9282   -0.8000    0.0000 C   0  0  0  0  0  0  0  0  0  0  0  0
    6.3161   -2.2782    0.0000 H   0  0  0  0  0  0  0  0  0  0  0  0
    7.5404   -2.2782    0.0000 H   0  0  0  0  0  0  0  0  0  0  0  0
    5.5425    0.0000    0.0000 C   0  0  0  0  0  0  0  0  0  0  0  0
    6.1547    1.4782    0.0000 H   0  0  0  0  0  0  0  0  0  0  0  0
    4.9304    1.4782    0.0000 H   0  0  0  0  0  0  0  0  0  0  0  0
    4.1568   -0.8000    0.0000 C   0  0  0  0  0  0  0  0  0  0  0  0
    3.5447   -2.2782    0.0000 H   0  0  0  0  0  0  0  0  0  0  0  0
    4.7694   -2.2782    0.0000 H   0  0  0  0  0  0  0  0  0  0  0  0
    2.7711    0.0000    0.0000 C   0  0  0  0  0  0  0  0  0  0  0  0
    3.3837    1.4782    0.0000 H   0  0  0  0  0  0  0  0  0  0  0  0
    2.1590    1.4782    0.0000 H   0  0  0  0  0  0  0  0  0  0  0  0
    1.3854   -0.8000    0.0000 C   0  0  0  0  0  0  0  0  0  0  0  0
    0.7733   -2.2782    0.0000 H   0  0  0  0  0  0  0  0  0  0  0  0
    1.9980   -2.2782    0.0000 H   0  0  0  0  0  0  0  0  0  0  0  0
    0.0002    0.0000    0.0000 C   0  0  0  0  0  0  0  0  0  0  0  0
    0.6123    1.4782    0.0000 H   0  0  0  0  0  0  0  0  0  0  0  0
   -0.6124    1.4782    0.0000 H   0  0  0  0  0  0  0  0  0  0  0  0
   -1.3855   -0.8000    0.0000 C   0  0  0  0  0  0  0  0  0  0  0  0
   -1.9981   -2.2782    0.0000 H   0  0  0  0  0  0  0  0  0  0  0  0
   -0.7734   -2.2782    0.0000 H   0  0  0  0  0  0  0  0  0  0  0  0
   -2.7712    0.0000    0.0000 C   0  0  0  0  0  0  0  0  0  0  0  0
   -2.1591    1.4782    0.0000 H   0  0  0  0  0  0  0  0  0  0  0  0
   -3.3834    1.4782    0.0000 H   0  0  0  0  0  0  0  0  0  0  0  0
   -4.1569   -0.8000    0.0000 C   0  0  0  0  0  0  0  0  0  0  0  0
   -4.7691   -2.2782    0.0000 H   0  0  0  0  0  0  0  0  0  0  0  0
   -3.5448   -2.2782    0.0000 H   0  0  0  0  0  0  0  0  0  0  0  0
   -5.5426    0.0000    0.0000 C   0  0  0  0  0  0  0  0  0  0  0  0
   -4.9305    1.4782    0.0000 H   0  0  0  0  0  0  0  0  0  0  0  0
   -6.1548    1.4782    0.0000 H   0  0  0  0  0  0  0  0  0  0  0  0
   -6.9284   -0.8000    0.0000 C   0  0  0  0  0  0  0  0  0  0  0  0
   -7.5405   -2.2782    0.0000 H   0  0  0  0  0  0  0  0  0  0  0  0
   -6.3157   -2.2782    0.0000 H   0  0  0  0  0  0  0  0  0  0  0  0
   -8.3141    0.0000    0.0000 C   0  0  0  0  0  0  0  0  0  0  0  0
   -7.7014    1.4782    0.0000 H   0  0  0  0  0  0  0  0  0  0  0  0
   -8.9262    1.4782    0.0000 H   0  0  0  0  0  0  0  0  0  0  0  0
   -9.6993   -0.8000    0.0000 C   0  0  0  0  0  0  0  0  0  0  0  0
  -10.3119   -2.2782    0.0000 H   0  0  0  0  0  0  0  0  0  0  0  0
   -9.0871   -2.2782    0.0000 H   0  0  0  0  0  0  0  0  0  0  0  0
  -11.0850    0.0000    0.0000 C   0  0  0  0  0  0  0  0  0  0  0  0
  -10.4729    1.4782    0.0000 H   0  0  0  0  0  0  0  0  0  0  0  0
  -11.6976    1.4782    0.0000 H   0  0  0  0  0  0  0  0  0  0  0  0
  -12.4707   -0.8000    0.0000 C   0  0  0  0  0  0  0  0  0  0  0  0
  -13.8564   -1.6000    0.0000 H   0  0  0  0  0  0  0  0  0  0  0  0
  -13.8564    0.0000    0.0000 H   0  0  0  0  0  0  0  0  0  0  0  0
  -12.4707   -2.4000    0.0000 H   0  0  0  0  0  0  0  0  0  0  0  0
    9.6996   -0.8000    0.0000 C   0  0  0  0  0  0  0  0  0  0  0  0
    9.0870   -2.2782    0.0000 H   0  0  0  0  0  0  0  0  0  0  0  0
   10.3118   -2.2782    0.0000 H   0  0  0  0  0  0  0  0  0  0  0  0
   11.0853    0.0000    0.0000 C   0  0  0  0  0  0  0  0  0  0  0  0
   12.4706   -0.8000    0.0000 O   0  0  0  0  0  0  0  0  0  0  0  0
   13.8563    0.0000    0.0000 C   0  0  0  0  0  0  0  0  0  0  0  0
   14.4689    1.4782    0.0000 H   0  0  0  0  0  0  0  0  0  0  0  0
   13.2441    1.4782    0.0000 H   0  0  0  0  0  0  0  0  0  0  0  0
   15.2420   -0.8000    0.0000 C   0  0  0  0  0  0  0  0  0  0  0  0
   16.6277   -1.6000    0.0000 H   0  0  0  0  0  0  0  0  0  0  0  0
   16.6277    0.0000    0.0000 H   0  0  0  0  0  0  0  0  0  0  0  0
   15.2420   -2.4000    0.0000 H   0  0  0  0  0  0  0  0  0  0  0  0
   11.0853    1.6000    0.0000 O   0  0  0  0  0  0  0  0  0  0  0  0
  1  2  1  0  0  0  0
  1  3  1  0  0  0  0
  1  4  1  0  0  0  0
  4  5  1  0  0  0  0
  4  6  1  0  0  0  0
  4  7  1  0  0  0  0
  7  8  1  0  0  0  0
  7  9  1  0  0  0  0
  7 10  1  0  0  0  0
 10 11  1  0  0  0  0
 10 12  1  0  0  0  0
 10 13  1  0  0  0  0
 13 14  1  0  0  0  0
 13 15  1  0  0  0  0
 13 16  1  0  0  0  0
 16 17  1  0  0  0  0
 16 18  1  0  0  0  0
 16 19  1  0  0  0  0
 19 20  1  0  0  0  0
 19 21  1  0  0  0  0
 19 22  1  0  0  0  0
 22 23  1  0  0  0  0
 22 24  1  0  0  0  0
 22 25  1  0  0  0  0
 25 26  1  0  0  0  0
 25 27  1  0  0  0  0
 25 28  1  0  0  0  0
 28 29  1  0  0  0  0
 28 30  1  0  0  0  0
 28 31  1  0  0  0  0
 31 32  1  0  0  0  0
 31 33  1  0  0  0  0
 31 34  1  0  0  0  0
 34 35  1  0  0  0  0
 34 36  1  0  0  0  0
 34 37  1  0  0  0  0
 37 38  1  0  0  0  0
 37 39  1  0  0  0  0
 37 40  1  0  0  0  0
 40 41  1  0  0  0  0
 40 42  1  0  0  0  0
 40 43  1  0  0  0  0
 43 44  1  0  0  0  0
 43 45  1  0  0  0  0
 43 46  1  0  0  0  0
 46 47  1  0  0  0  0
 46 48  1  0  0  0  0
 46 49  1  0  0  0  0
  1 50  1  0  0  0  0
 50 51  1  0  0  0  0
 50 52  1  0  0  0  0
 50 53  1  0  0  0  0
 53 54  1  0  0  0  0
 54 55  1  0  0  0  0
 55 56  1  0  0  0  0
 55 57  1  0  0  0  0
 55 58  1  0  0  0  0
 58 59  1  0  0  0  0
 58 60  1  0  0  0  0
 58 61  1  0  0  0  0
 53 62  2  0  0  0  0
M  END
> <ChemID>
100835

> <source_casrn>
111-61-5

> <CAS>
111-61-5

> <SMILES>
CCCCCCCCCCCCCCCCCC(=O)OCC

> <NAME>
ETHYL STEARATE

> <preferred_name>
Ethyl stearate

> <iupac>
Ethyl octadecanoate

> <MPID>
25467

> <dsstox_substance_id>
DTXSID5059406

> <Canonical_QSARr>
CCCCCCCCCCCCCCCCCC(=O)OCC

> <InChI_Code_QSARr>
InChI=1S/C20H40O2/c1-3-5-6-7-8-9-10-11-12-13-14-15-16-17-18-19-20(21)22-4-2/h3-19H2,1-2H3

> <InChI Key_QSARr>
MVLVMROFTAUDAG-UHFFFAOYSA-N

> <Salt_Solvent>
?

> <LogVP>
-5.5867

$$$$
100839
  -INDIGO-08031723152D

 25 24  0  0  0  0  0  0  0  0999 V2000
    4.1569    0.8000    0.0000 C   0  0  0  0  0  0  0  0  0  0  0  0
    5.5426    1.6000    0.0000 H   0  0  0  0  0  0  0  0  0  0  0  0
    5.5426    0.0000    0.0000 H   0  0  0  0  0  0  0  0  0  0  0  0
    4.1569    2.4000    0.0000 H   0  0  0  0  0  0  0  0  0  0  0  0
    2.7713    0.0000    0.0000 C   0  0  0  0  0  0  0  0  0  0  0  0
    2.1590   -1.4782    0.0000 H   0  0  0  0  0  0  0  0  0  0  0  0
    3.3835   -1.4782    0.0000 H   0  0  0  0  0  0  0  0  0  0  0  0
    1.3856    0.8000    0.0000 C   0  0  0  0  0  0  0  0  0  0  0  0
    1.9980    2.2782    0.0000 H   0  0  0  0  0  0  0  0  0  0  0  0
    0.7733    2.2782    0.0000 H   0  0  0  0  0  0  0  0  0  0  0  0
   -0.0001    0.0000    0.0000 C   0  0  0  0  0  0  0  0  0  0  0  0
   -0.6122   -1.4782    0.0000 H   0  0  0  0  0  0  0  0  0  0  0  0
    0.6123   -1.4782    0.0000 H   0  0  0  0  0  0  0  0  0  0  0  0
   -1.3856    0.8000    0.0000 C   0  0  0  0  0  0  0  0  0  0  0  0
   -0.7734    2.2782    0.0000 H   0  0  0  0  0  0  0  0  0  0  0  0
   -1.9979    2.2782    0.0000 H   0  0  0  0  0  0  0  0  0  0  0  0
   -2.7713    0.0000    0.0000 C   0  0  0  0  0  0  0  0  0  0  0  0
   -3.3836   -1.4782    0.0000 H   0  0  0  0  0  0  0  0  0  0  0  0
   -2.1589   -1.4782    0.0000 H   0  0  0  0  0  0  0  0  0  0  0  0
   -4.1570    0.8000    0.0000 C   0  0  0  0  0  0  0  0  0  0  0  0
   -3.5446    2.2782    0.0000 H   0  0  0  0  0  0  0  0  0  0  0  0
   -4.7692    2.2782    0.0000 H   0  0  0  0  0  0  0  0  0  0  0  0
   -5.5425    0.0000    0.0000 N   0  0  0  0  0  0  0  0  0  0  0  0
   -6.9282    0.8000    0.0000 H   0  0  0  0  0  0  0  0  0  0  0  0
   -5.5425   -1.6000    0.0000 H   0  0  0  0  0  0  0  0  0  0  0  0
  1  2  1  0  0  0  0
  1  3  1  0  0  0  0
  1  4  1  0  0  0  0
  1  5  1  0  0  0  0
  5  6  1  0  0  0  0
  5  7  1  0  0  0  0
  5  8  1  0  0  0  0
  8  9  1  0  0  0  0
  8 10  1  0  0  0  0
  8 11  1  0  0  0  0
 11 12  1  0  0  0  0
 11 13  1  0  0  0  0
 11 14  1  0  0  0  0
 14 15  1  0  0  0  0
 14 16  1  0  0  0  0
 14 17  1  0  0  0  0
 17 18  1  0  0  0  0
 17 19  1  0  0  0  0
 17 20  1  0  0  0  0
 20 21  1  0  0  0  0
 20 22  1  0  0  0  0
 20 23  1  0  0  0  0
 23 24  1  0  0  0  0
 23 25  1  0  0  0  0
M  END
> <ChemID>
100839

> <source_casrn>
111-68-2

> <CAS>
111-68-2

> <SMILES>
CCCCCCCN

> <NAME>
HEPTYLAMINE

> <preferred_name>
Heptylamine

> <iupac>
C7H17N

> <MPID>
25471

> <dsstox_substance_id>
DTXSID7020681

> <Canonical_QSARr>
CCCCCCCN

> <InChI_Code_QSARr>
InChI=1S/C7H17N/c1-2-3-4-5-6-7-8/h2-8H2,1H3

> <InChI Key_QSARr>
WJYIASZWHGOTOU-UHFFFAOYSA-N

> <Salt_Solvent>
?

> <LogVP>
0.4378

$$$$
100843
  -INDIGO-08031723152D

 22 21  0  0  0  0  0  0  0  0999 V2000
    6.9281    0.8000    0.0000 O   0  0  0  0  0  0  0  0  0  0  0  0
    8.3138   -0.0000    0.0000 H   0  0  0  0  0  0  0  0  0  0  0  0
    5.5426   -0.0000    0.0000 C   0  0  0  0  0  0  0  0  0  0  0  0
    4.9303   -1.4782    0.0000 H   0  0  0  0  0  0  0  0  0  0  0  0
    6.1548   -1.4782    0.0000 H   0  0  0  0  0  0  0  0  0  0  0  0
    4.1569    0.8000    0.0000 C   0  0  0  0  0  0  0  0  0  0  0  0
    4.7693    2.2782    0.0000 H   0  0  0  0  0  0  0  0  0  0  0  0
    3.5446    2.2782    0.0000 H   0  0  0  0  0  0  0  0  0  0  0  0
    2.7712   -0.0000    0.0000 O   0  0  0  0  0  0  0  0  0  0  0  0
    1.3857    0.8000    0.0000 C   0  0  0  0  0  0  0  0  0  0  0  0
    1.9979    2.2782    0.0000 H   0  0  0  0  0  0  0  0  0  0  0  0
    0.7733    2.2782    0.0000 H   0  0  0  0  0  0  0  0  0  0  0  0
    0.0000   -0.0000    0.0000 C   0  0  0  0  0  0  0  0  0  0  0  0
   -0.6124   -1.4782    0.0000 H   0  0  0  0  0  0  0  0  0  0  0  0
    0.6124   -1.4782    0.0000 H   0  0  0  0  0  0  0  0  0  0  0  0
   -1.3857    0.8000    0.0000 C   0  0  0  0  0  0  0  0  0  0  0  0
   -0.7733    2.2782    0.0000 H   0  0  0  0  0  0  0  0  0  0  0  0
   -1.9979    2.2782    0.0000 H   0  0  0  0  0  0  0  0  0  0  0  0
   -2.7712   -0.0000    0.0000 C   0  0  0  0  0  0  0  0  0  0  0  0
   -4.1569   -0.8000    0.0000 H   0  0  0  0  0  0  0  0  0  0  0  0
   -4.1569    0.8000    0.0000 H   0  0  0  0  0  0  0  0  0  0  0  0
   -2.7712   -1.6000    0.0000 H   0  0  0  0  0  0  0  0  0  0  0  0
  1  2  1  0  0  0  0
  1  3  1  0  0  0  0
  3  4  1  0  0  0  0
  3  5  1  0  0  0  0
  3  6  1  0  0  0  0
  6  7  1  0  0  0  0
  6  8  1  0  0  0  0
  6  9  1  0  0  0  0
  9 10  1  0  0  0  0
 10 11  1  0  0  0  0
 10 12  1  0  0  0  0
 10 13  1  0  0  0  0
 13 14  1  0  0  0  0
 13 15  1  0  0  0  0
 13 16  1  0  0  0  0
 16 17  1  0  0  0  0
 16 18  1  0  0  0  0
 16 19  1  0  0  0  0
 19 20  1  0  0  0  0
 19 21  1  0  0  0  0
 19 22  1  0  0  0  0
M  END
> <ChemID>
100843

> <source_casrn>
111-76-2

> <CAS>
111-76-2

> <SMILES>
CCCCOCCO

> <NAME>
2-BUTOXYETHANOL

> <preferred_name>
2-Butoxyethanol

> <iupac>
C6H14O2

> <MPID>
25475

> <dsstox_substance_id>
DTXSID1024097

> <Canonical_QSARr>
CCCCOCCO

> <InChI_Code_QSARr>
InChI=1S/C6H14O2/c1-2-3-5-8-6-4-7/h7H,2-6H2,1H3

> <InChI Key_QSARr>
POAOYUHQDCAZBD-UHFFFAOYSA-N

> <Salt_Solvent>
?

> <LogVP>
-0.0555

$$$$
100847
  -INDIGO-08031723152D

 26 25  0  0  0  0  0  0  0  0999 V2000
    4.1569   -2.4000    0.0000 Br  0  0  0  0  0  0  0  0  0  0  0  0
    4.1569   -0.8000    0.0000 C   0  0  0  0  0  0  0  0  0  0  0  0
    5.5426   -1.6000    0.0000 H   0  0  0  0  0  0  0  0  0  0  0  0
    5.5426    0.0000    0.0000 H   0  0  0  0  0  0  0  0  0  0  0  0
    2.7713    0.0000    0.0000 C   0  0  0  0  0  0  0  0  0  0  0  0
    3.3835    1.4782    0.0000 H   0  0  0  0  0  0  0  0  0  0  0  0
    2.1590    1.4782    0.0000 H   0  0  0  0  0  0  0  0  0  0  0  0
    1.3856   -0.8000    0.0000 C   0  0  0  0  0  0  0  0  0  0  0  0
    0.7733   -2.2782    0.0000 H   0  0  0  0  0  0  0  0  0  0  0  0
    1.9980   -2.2782    0.0000 H   0  0  0  0  0  0  0  0  0  0  0  0
   -0.0001    0.0000    0.0000 C   0  0  0  0  0  0  0  0  0  0  0  0
    0.6123    1.4782    0.0000 H   0  0  0  0  0  0  0  0  0  0  0  0
   -0.6122    1.4782    0.0000 H   0  0  0  0  0  0  0  0  0  0  0  0
   -1.3856   -0.8000    0.0000 C   0  0  0  0  0  0  0  0  0  0  0  0
   -1.9979   -2.2782    0.0000 H   0  0  0  0  0  0  0  0  0  0  0  0
   -0.7734   -2.2782    0.0000 H   0  0  0  0  0  0  0  0  0  0  0  0
   -2.7713    0.0000    0.0000 C   0  0  0  0  0  0  0  0  0  0  0  0
   -2.1589    1.4782    0.0000 H   0  0  0  0  0  0  0  0  0  0  0  0
   -3.3836    1.4782    0.0000 H   0  0  0  0  0  0  0  0  0  0  0  0
   -4.1570   -0.8000    0.0000 C   0  0  0  0  0  0  0  0  0  0  0  0
   -4.7692   -2.2782    0.0000 H   0  0  0  0  0  0  0  0  0  0  0  0
   -3.5446   -2.2782    0.0000 H   0  0  0  0  0  0  0  0  0  0  0  0
   -5.5425    0.0000    0.0000 C   0  0  0  0  0  0  0  0  0  0  0  0
   -6.9282    0.8000    0.0000 H   0  0  0  0  0  0  0  0  0  0  0  0
   -6.9282   -0.8000    0.0000 H   0  0  0  0  0  0  0  0  0  0  0  0
   -5.5425    1.6000    0.0000 H   0  0  0  0  0  0  0  0  0  0  0  0
  1  2  1  0  0  0  0
  2  3  1  0  0  0  0
  2  4  1  0  0  0  0
  2  5  1  0  0  0  0
  5  6  1  0  0  0  0
  5  7  1  0  0  0  0
  5  8  1  0  0  0  0
  8  9  1  0  0  0  0
  8 10  1  0  0  0  0
  8 11  1  0  0  0  0
 11 12  1  0  0  0  0
 11 13  1  0  0  0  0
 11 14  1  0  0  0  0
 14 15  1  0  0  0  0
 14 16  1  0  0  0  0
 14 17  1  0  0  0  0
 17 18  1  0  0  0  0
 17 19  1  0  0  0  0
 17 20  1  0  0  0  0
 20 21  1  0  0  0  0
 20 22  1  0  0  0  0
 20 23  1  0  0  0  0
 23 24  1  0  0  0  0
 23 25  1  0  0  0  0
 23 26  1  0  0  0  0
M  END
> <ChemID>
100847

> <source_casrn>
111-83-1

> <CAS>
111-83-1

> <SMILES>
CCCCCCCCBr

> <NAME>
1-BROMOOCTANE

> <preferred_name>
1-Bromooctane

> <iupac>
1-bromooctane

> <MPID>
25479

> <dsstox_substance_id>
DTXSID3021938

> <Canonical_QSARr>
CCCCCCCCBr

> <InChI_Code_QSARr>
InChI=1S/C8H17Br/c1-2-3-4-5-6-7-8-9/h2-8H2,1H3

> <InChI Key_QSARr>
VMKOFRJSULQZRM-UHFFFAOYSA-N

> <Salt_Solvent>
?

> <LogVP>
-0.4181

$$$$
100851
  -INDIGO-08031723152D

 27 26  0  0  0  0  0  0  0  0999 V2000
    5.5427   -0.0000    0.0000 C   0  0  0  0  0  0  0  0  0  0  0  0
    6.9282   -0.8000    0.0000 H   0  0  0  0  0  0  0  0  0  0  0  0
    6.9282    0.8000    0.0000 H   0  0  0  0  0  0  0  0  0  0  0  0
    5.5427   -1.6000    0.0000 H   0  0  0  0  0  0  0  0  0  0  0  0
    4.1569    0.8000    0.0000 C   0  0  0  0  0  0  0  0  0  0  0  0
    3.5446    2.2782    0.0000 H   0  0  0  0  0  0  0  0  0  0  0  0
    4.7692    2.2782    0.0000 H   0  0  0  0  0  0  0  0  0  0  0  0
    2.7714   -0.0000    0.0000 C   0  0  0  0  0  0  0  0  0  0  0  0
    3.3835   -1.4782    0.0000 H   0  0  0  0  0  0  0  0  0  0  0  0
    2.1591   -1.4782    0.0000 H   0  0  0  0  0  0  0  0  0  0  0  0
    1.3856    0.8000    0.0000 C   0  0  0  0  0  0  0  0  0  0  0  0
    0.7733    2.2782    0.0000 H   0  0  0  0  0  0  0  0  0  0  0  0
    1.9980    2.2782    0.0000 H   0  0  0  0  0  0  0  0  0  0  0  0
    0.0001   -0.0000    0.0000 C   0  0  0  0  0  0  0  0  0  0  0  0
    0.6122   -1.4782    0.0000 H   0  0  0  0  0  0  0  0  0  0  0  0
   -0.6122   -1.4782    0.0000 H   0  0  0  0  0  0  0  0  0  0  0  0
   -1.3856    0.8000    0.0000 C   0  0  0  0  0  0  0  0  0  0  0  0
   -1.9980    2.2782    0.0000 H   0  0  0  0  0  0  0  0  0  0  0  0
   -0.7733    2.2782    0.0000 H   0  0  0  0  0  0  0  0  0  0  0  0
   -2.7712   -0.0000    0.0000 C   0  0  0  0  0  0  0  0  0  0  0  0
   -2.1591   -1.4782    0.0000 H   0  0  0  0  0  0  0  0  0  0  0  0
   -3.3835   -1.4782    0.0000 H   0  0  0  0  0  0  0  0  0  0  0  0
   -4.1569    0.8000    0.0000 C   0  0  0  0  0  0  0  0  0  0  0  0
   -4.7692    2.2782    0.0000 H   0  0  0  0  0  0  0  0  0  0  0  0
   -3.5446    2.2782    0.0000 H   0  0  0  0  0  0  0  0  0  0  0  0
   -5.5425   -0.0000    0.0000 O   0  0  0  0  0  0  0  0  0  0  0  0
   -6.9282    0.8000    0.0000 H   0  0  0  0  0  0  0  0  0  0  0  0
  1  2  1  0  0  0  0
  1  3  1  0  0  0  0
  1  4  1  0  0  0  0
  1  5  1  0  0  0  0
  5  6  1  0  0  0  0
  5  7  1  0  0  0  0
  5  8  1  0  0  0  0
  8  9  1  0  0  0  0
  8 10  1  0  0  0  0
  8 11  1  0  0  0  0
 11 12  1  0  0  0  0
 11 13  1  0  0  0  0
 11 14  1  0  0  0  0
 14 15  1  0  0  0  0
 14 16  1  0  0  0  0
 14 17  1  0  0  0  0
 17 18  1  0  0  0  0
 17 19  1  0  0  0  0
 17 20  1  0  0  0  0
 20 21  1  0  0  0  0
 20 22  1  0  0  0  0
 20 23  1  0  0  0  0
 23 24  1  0  0  0  0
 23 25  1  0  0  0  0
 23 26  1  0  0  0  0
 26 27  1  0  0  0  0
M  END
> <ChemID>
100851

> <source_casrn>
111-87-5

> <CAS>
111-87-5

> <SMILES>
CCCCCCCCO

> <NAME>
1-OCTANOL

> <preferred_name>
1-Octanol

> <iupac>
octan-1-ol

> <MPID>
25483

> <dsstox_substance_id>
DTXSID7021940

> <Canonical_QSARr>
CCCCCCCCO

> <InChI_Code_QSARr>
InChI=1S/C8H18O/c1-2-3-4-5-6-7-8-9/h9H,2-8H2,1H3

> <InChI Key_QSARr>
KBPLFHHGFOOTCA-UHFFFAOYSA-N

> <Salt_Solvent>
?

> <LogVP>
-1.1002

$$$$
100855
  -INDIGO-08031723152D

 28 27  0  0  0  0  0  0  0  0999 V2000
    2.7712   -0.0000    0.0000 N   0  0  0  0  0  0  0  0  0  0  0  0
    2.7712   -1.6000    0.0000 H   0  0  0  0  0  0  0  0  0  0  0  0
    4.1569    0.8000    0.0000 C   0  0  0  0  0  0  0  0  0  0  0  0
    3.5446    2.2782    0.0000 H   0  0  0  0  0  0  0  0  0  0  0  0
    4.7692    2.2782    0.0000 H   0  0  0  0  0  0  0  0  0  0  0  0
    5.5427   -0.0000    0.0000 C   0  0  0  0  0  0  0  0  0  0  0  0
    6.1548   -1.4782    0.0000 H   0  0  0  0  0  0  0  0  0  0  0  0
    4.9304   -1.4782    0.0000 H   0  0  0  0  0  0  0  0  0  0  0  0
    6.9282    0.8000    0.0000 C   0  0  0  0  0  0  0  0  0  0  0  0
    6.3159    2.2782    0.0000 H   0  0  0  0  0  0  0  0  0  0  0  0
    7.5405    2.2782    0.0000 H   0  0  0  0  0  0  0  0  0  0  0  0
    8.3139   -0.0000    0.0000 C   0  0  0  0  0  0  0  0  0  0  0  0
    9.6995   -0.8000    0.0000 H   0  0  0  0  0  0  0  0  0  0  0  0
    9.6995    0.8000    0.0000 H   0  0  0  0  0  0  0  0  0  0  0  0
    8.3139   -1.6000    0.0000 H   0  0  0  0  0  0  0  0  0  0  0  0
    1.3856    0.8000    0.0000 C   0  0  0  0  0  0  0  0  0  0  0  0
    0.7733    2.2782    0.0000 H   0  0  0  0  0  0  0  0  0  0  0  0
    1.9980    2.2782    0.0000 H   0  0  0  0  0  0  0  0  0  0  0  0
   -0.0001   -0.0000    0.0000 C   0  0  0  0  0  0  0  0  0  0  0  0
    0.6122   -1.4782    0.0000 H   0  0  0  0  0  0  0  0  0  0  0  0
   -0.6122   -1.4782    0.0000 H   0  0  0  0  0  0  0  0  0  0  0  0
   -1.3856    0.8000    0.0000 C   0  0  0  0  0  0  0  0  0  0  0  0
   -1.9980    2.2782    0.0000 H   0  0  0  0  0  0  0  0  0  0  0  0
   -0.7733    2.2782    0.0000 H   0  0  0  0  0  0  0  0  0  0  0  0
   -2.7714   -0.0000    0.0000 C   0  0  0  0  0  0  0  0  0  0  0  0
   -4.1569   -0.8000    0.0000 H   0  0  0  0  0  0  0  0  0  0  0  0
   -4.1569    0.8000    0.0000 H   0  0  0  0  0  0  0  0  0  0  0  0
   -2.7714   -1.6000    0.0000 H   0  0  0  0  0  0  0  0  0  0  0  0
  1  2  1  0  0  0  0
  1  3  1  0  0  0  0
  3  4  1  0  0  0  0
  3  5  1  0  0  0  0
  3  6  1  0  0  0  0
  6  7  1  0  0  0  0
  6  8  1  0  0  0  0
  6  9  1  0  0  0  0
  9 10  1  0  0  0  0
  9 11  1  0  0  0  0
  9 12  1  0  0  0  0
 12 13  1  0  0  0  0
 12 14  1  0  0  0  0
 12 15  1  0  0  0  0
  1 16  1  0  0  0  0
 16 17  1  0  0  0  0
 16 18  1  0  0  0  0
 16 19  1  0  0  0  0
 19 20  1  0  0  0  0
 19 21  1  0  0  0  0
 19 22  1  0  0  0  0
 22 23  1  0  0  0  0
 22 24  1  0  0  0  0
 22 25  1  0  0  0  0
 25 26  1  0  0  0  0
 25 27  1  0  0  0  0
 25 28  1  0  0  0  0
M  END
> <ChemID>
100855

> <source_casrn>
111-92-2

> <CAS>
111-92-2

> <SMILES>
CCCCNCCCC

> <NAME>
DIBUTYLAMINE

> <preferred_name>
N-Butyl-1-butanamine

> <iupac>
N-butylbutan-1-amine

> <MPID>
25487

> <dsstox_substance_id>
DTXSID7024952

> <Canonical_QSARr>
CCCCNCCCC

> <InChI_Code_QSARr>
InChI=1S/C8H19N/c1-3-5-7-9-8-6-4-2/h9H,3-8H2,1-2H3

> <InChI Key_QSARr>
JQVDAXLFBXTEQA-UHFFFAOYSA-N

> <Salt_Solvent>
?

> <LogVP>
0.4128

$$$$
100859
  -INDIGO-08031723152D

 65 64  0  0  0  0  0  0  0  0999 V2000
  -11.0853    0.0000    0.0000 C   0  0  0  0  0  0  0  0  0  0  0  0
  -11.0853    1.6000    0.0000 O   0  0  0  0  0  0  0  0  0  0  0  0
  -12.4706   -0.8000    0.0000 O   0  0  0  0  0  0  0  0  0  0  0  0
  -13.8563    0.0000    0.0000 C   0  0  0  0  0  0  0  0  0  0  0  0
  -13.0562    1.3856    0.0000 H   0  0  0  0  0  0  0  0  0  0  0  0
  -15.2420    0.8000    0.0000 C   0  0  0  0  0  0  0  0  0  0  0  0
  -16.6277    1.6000    0.0000 H   0  0  0  0  0  0  0  0  0  0  0  0
  -16.6277    0.0000    0.0000 H   0  0  0  0  0  0  0  0  0  0  0  0
  -15.2420    2.4000    0.0000 H   0  0  0  0  0  0  0  0  0  0  0  0
  -14.6564   -1.3856    0.0000 C   0  0  0  0  0  0  0  0  0  0  0  0
  -15.4564   -2.7713    0.0000 H   0  0  0  0  0  0  0  0  0  0  0  0
  -13.8563   -2.7713    0.0000 H   0  0  0  0  0  0  0  0  0  0  0  0
  -16.2565   -1.3856    0.0000 H   0  0  0  0  0  0  0  0  0  0  0  0
   -9.6996   -0.8000    0.0000 C   0  0  0  0  0  0  0  0  0  0  0  0
   -9.0870   -2.2782    0.0000 H   0  0  0  0  0  0  0  0  0  0  0  0
  -10.3118   -2.2782    0.0000 H   0  0  0  0  0  0  0  0  0  0  0  0
   -8.3139    0.0000    0.0000 C   0  0  0  0  0  0  0  0  0  0  0  0
   -8.9261    1.4782    0.0000 H   0  0  0  0  0  0  0  0  0  0  0  0
   -7.7018    1.4782    0.0000 H   0  0  0  0  0  0  0  0  0  0  0  0
   -6.9282   -0.8000    0.0000 C   0  0  0  0  0  0  0  0  0  0  0  0
   -6.3161   -2.2782    0.0000 H   0  0  0  0  0  0  0  0  0  0  0  0
   -7.5404   -2.2782    0.0000 H   0  0  0  0  0  0  0  0  0  0  0  0
   -5.5425    0.0000    0.0000 C   0  0  0  0  0  0  0  0  0  0  0  0
   -6.1547    1.4782    0.0000 H   0  0  0  0  0  0  0  0  0  0  0  0
   -4.9304    1.4782    0.0000 H   0  0  0  0  0  0  0  0  0  0  0  0
   -4.1568   -0.8000    0.0000 C   0  0  0  0  0  0  0  0  0  0  0  0
   -3.5447   -2.2782    0.0000 H   0  0  0  0  0  0  0  0  0  0  0  0
   -4.7694   -2.2782    0.0000 H   0  0  0  0  0  0  0  0  0  0  0  0
   -2.7711    0.0000    0.0000 C   0  0  0  0  0  0  0  0  0  0  0  0
   -3.3837    1.4782    0.0000 H   0  0  0  0  0  0  0  0  0  0  0  0
   -2.1590    1.4782    0.0000 H   0  0  0  0  0  0  0  0  0  0  0  0
   -1.3854   -0.8000    0.0000 C   0  0  0  0  0  0  0  0  0  0  0  0
   -0.7733   -2.2782    0.0000 H   0  0  0  0  0  0  0  0  0  0  0  0
   -1.9980   -2.2782    0.0000 H   0  0  0  0  0  0  0  0  0  0  0  0
   -0.0002    0.0000    0.0000 C   0  0  0  0  0  0  0  0  0  0  0  0
   -0.6123    1.4782    0.0000 H   0  0  0  0  0  0  0  0  0  0  0  0
    0.6124    1.4782    0.0000 H   0  0  0  0  0  0  0  0  0  0  0  0
    1.3855   -0.8000    0.0000 C   0  0  0  0  0  0  0  0  0  0  0  0
    1.9981   -2.2782    0.0000 H   0  0  0  0  0  0  0  0  0  0  0  0
    0.7734   -2.2782    0.0000 H   0  0  0  0  0  0  0  0  0  0  0  0
    2.7712    0.0000    0.0000 C   0  0  0  0  0  0  0  0  0  0  0  0
    2.1591    1.4782    0.0000 H   0  0  0  0  0  0  0  0  0  0  0  0
    3.3834    1.4782    0.0000 H   0  0  0  0  0  0  0  0  0  0  0  0
    4.1569   -0.8000    0.0000 C   0  0  0  0  0  0  0  0  0  0  0  0
    4.7691   -2.2782    0.0000 H   0  0  0  0  0  0  0  0  0  0  0  0
    3.5448   -2.2782    0.0000 H   0  0  0  0  0  0  0  0  0  0  0  0
    5.5426    0.0000    0.0000 C   0  0  0  0  0  0  0  0  0  0  0  0
    4.9305    1.4782    0.0000 H   0  0  0  0  0  0  0  0  0  0  0  0
    6.1548    1.4782    0.0000 H   0  0  0  0  0  0  0  0  0  0  0  0
    6.9284   -0.8000    0.0000 C   0  0  0  0  0  0  0  0  0  0  0  0
    7.5405   -2.2782    0.0000 H   0  0  0  0  0  0  0  0  0  0  0  0
    6.3157   -2.2782    0.0000 H   0  0  0  0  0  0  0  0  0  0  0  0
    8.3141    0.0000    0.0000 C   0  0  0  0  0  0  0  0  0  0  0  0
    7.7014    1.4782    0.0000 H   0  0  0  0  0  0  0  0  0  0  0  0
    8.9262    1.4782    0.0000 H   0  0  0  0  0  0  0  0  0  0  0  0
    9.6993   -0.8000    0.0000 C   0  0  0  0  0  0  0  0  0  0  0  0
   10.3119   -2.2782    0.0000 H   0  0  0  0  0  0  0  0  0  0  0  0
    9.0871   -2.2782    0.0000 H   0  0  0  0  0  0  0  0  0  0  0  0
   11.0850    0.0000    0.0000 C   0  0  0  0  0  0  0  0  0  0  0  0
   10.4729    1.4782    0.0000 H   0  0  0  0  0  0  0  0  0  0  0  0
   11.6976    1.4782    0.0000 H   0  0  0  0  0  0  0  0  0  0  0  0
   12.4707   -0.8000    0.0000 C   0  0  0  0  0  0  0  0  0  0  0  0
   13.8564   -1.6000    0.0000 H   0  0  0  0  0  0  0  0  0  0  0  0
   13.8564    0.0000    0.0000 H   0  0  0  0  0  0  0  0  0  0  0  0
   12.4707   -2.4000    0.0000 H   0  0  0  0  0  0  0  0  0  0  0  0
  1  2  2  0  0  0  0
  1  3  1  0  0  0  0
  3  4  1  0  0  0  0
  4  5  1  0  0  0  0
  4  6  1  0  0  0  0
  6  7  1  0  0  0  0
  6  8  1  0  0  0  0
  6  9  1  0  0  0  0
  4 10  1  0  0  0  0
 10 11  1  0  0  0  0
 10 12  1  0  0  0  0
 10 13  1  0  0  0  0
  1 14  1  0  0  0  0
 14 15  1  0  0  0  0
 14 16  1  0  0  0  0
 14 17  1  0  0  0  0
 17 18  1  0  0  0  0
 17 19  1  0  0  0  0
 17 20  1  0  0  0  0
 20 21  1  0  0  0  0
 20 22  1  0  0  0  0
 20 23  1  0  0  0  0
 23 24  1  0  0  0  0
 23 25  1  0  0  0  0
 23 26  1  0  0  0  0
 26 27  1  0  0  0  0
 26 28  1  0  0  0  0
 26 29  1  0  0  0  0
 29 30  1  0  0  0  0
 29 31  1  0  0  0  0
 29 32  1  0  0  0  0
 32 33  1  0  0  0  0
 32 34  1  0  0  0  0
 32 35  1  0  0  0  0
 35 36  1  0  0  0  0
 35 37  1  0  0  0  0
 35 38  1  0  0  0  0
 38 39  1  0  0  0  0
 38 40  1  0  0  0  0
 38 41  1  0  0  0  0
 41 42  1  0  0  0  0
 41 43  1  0  0  0  0
 41 44  1  0  0  0  0
 44 45  1  0  0  0  0
 44 46  1  0  0  0  0
 44 47  1  0  0  0  0
 47 48  1  0  0  0  0
 47 49  1  0  0  0  0
 47 50  1  0  0  0  0
 50 51  1  0  0  0  0
 50 52  1  0  0  0  0
 50 53  1  0  0  0  0
 53 54  1  0  0  0  0
 53 55  1  0  0  0  0
 53 56  1  0  0  0  0
 56 57  1  0  0  0  0
 56 58  1  0  0  0  0
 56 59  1  0  0  0  0
 59 60  1  0  0  0  0
 59 61  1  0  0  0  0
 59 62  1  0  0  0  0
 62 63  1  0  0  0  0
 62 64  1  0  0  0  0
 62 65  1  0  0  0  0
M  END
> <ChemID>
100859

> <source_casrn>
112-10-7

> <CAS>
112-10-7

> <SMILES>
CCCCCCCCCCCCCCCCCC(=O)OC(C)C

> <NAME>
ISOPROPYL STEARATE

> <preferred_name>
Isopropyl octadecanoate

> <iupac>
isopropyl stearate

> <MPID>
25491

> <dsstox_substance_id>
DTXSID5051579

> <Canonical_QSARr>
CCCCCCCCCCCCCCCCCC(=O)OC(C)C

> <InChI_Code_QSARr>
InChI=1S/C21H42O2/c1-4-5-6-7-8-9-10-11-12-13-14-15-16-17-18-19-21(22)23-20(2)3/h20H,4-19H2,1-3H3

> <InChI Key_QSARr>
ZPWFUIUNWDIYCJ-UHFFFAOYSA-N

> <Salt_Solvent>
?

> <LogVP>
-4.4012

$$$$
100863
  -INDIGO-08031723152D

 28 27  0  0  0  0  0  0  0  0999 V2000
    5.5425    0.0000    0.0000 N   0  0  0  0  0  0  0  0  0  0  0  0
    6.9282   -0.8000    0.0000 H   0  0  0  0  0  0  0  0  0  0  0  0
    5.5425    1.6000    0.0000 H   0  0  0  0  0  0  0  0  0  0  0  0
    4.1570   -0.8000    0.0000 C   0  0  0  0  0  0  0  0  0  0  0  0
    3.5446   -2.2782    0.0000 H   0  0  0  0  0  0  0  0  0  0  0  0
    4.7692   -2.2782    0.0000 H   0  0  0  0  0  0  0  0  0  0  0  0
    2.7713    0.0000    0.0000 C   0  0  0  0  0  0  0  0  0  0  0  0
    3.3835    1.4782    0.0000 H   0  0  0  0  0  0  0  0  0  0  0  0
    2.1589    1.4782    0.0000 H   0  0  0  0  0  0  0  0  0  0  0  0
    1.3856   -0.8000    0.0000 N   0  0  0  0  0  0  0  0  0  0  0  0
    1.3856   -2.4000    0.0000 H   0  0  0  0  0  0  0  0  0  0  0  0
   -0.0001    0.0000    0.0000 C   0  0  0  0  0  0  0  0  0  0  0  0
    0.6123    1.4782    0.0000 H   0  0  0  0  0  0  0  0  0  0  0  0
   -0.6122    1.4782    0.0000 H   0  0  0  0  0  0  0  0  0  0  0  0
   -1.3856   -0.8000    0.0000 C   0  0  0  0  0  0  0  0  0  0  0  0
   -1.9979   -2.2782    0.0000 H   0  0  0  0  0  0  0  0  0  0  0  0
   -0.7734   -2.2782    0.0000 H   0  0  0  0  0  0  0  0  0  0  0  0
   -2.7713    0.0000    0.0000 N   0  0  0  0  0  0  0  0  0  0  0  0
   -2.7713    1.6000    0.0000 H   0  0  0  0  0  0  0  0  0  0  0  0
   -4.1570   -0.8000    0.0000 C   0  0  0  0  0  0  0  0  0  0  0  0
   -4.7691   -2.2782    0.0000 H   0  0  0  0  0  0  0  0  0  0  0  0
   -3.5446   -2.2782    0.0000 H   0  0  0  0  0  0  0  0  0  0  0  0
   -5.5427    0.0000    0.0000 C   0  0  0  0  0  0  0  0  0  0  0  0
   -4.9303    1.4782    0.0000 H   0  0  0  0  0  0  0  0  0  0  0  0
   -6.1548    1.4782    0.0000 H   0  0  0  0  0  0  0  0  0  0  0  0
   -6.9281   -0.8000    0.0000 N   0  0  0  0  0  0  0  0  0  0  0  0
   -8.3138    0.0000    0.0000 H   0  0  0  0  0  0  0  0  0  0  0  0
   -6.9281   -2.4000    0.0000 H   0  0  0  0  0  0  0  0  0  0  0  0
  1  2  1  0  0  0  0
  1  3  1  0  0  0  0
  1  4  1  0  0  0  0
  4  5  1  0  0  0  0
  4  6  1  0  0  0  0
  4  7  1  0  0  0  0
  7  8  1  0  0  0  0
  7  9  1  0  0  0  0
  7 10  1  0  0  0  0
 10 11  1  0  0  0  0
 10 12  1  0  0  0  0
 12 13  1  0  0  0  0
 12 14  1  0  0  0  0
 12 15  1  0  0  0  0
 15 16  1  0  0  0  0
 15 17  1  0  0  0  0
 15 18  1  0  0  0  0
 18 19  1  0  0  0  0
 18 20  1  0  0  0  0
 20 21  1  0  0  0  0
 20 22  1  0  0  0  0
 20 23  1  0  0  0  0
 23 24  1  0  0  0  0
 23 25  1  0  0  0  0
 23 26  1  0  0  0  0
 26 27  1  0  0  0  0
 26 28  1  0  0  0  0
M  END
> <ChemID>
100863

> <source_casrn>
112-24-3

> <CAS>
112-24-3

> <SMILES>
NCCNCCNCCN

> <NAME>
TRIETHYLENETETRAAMINE

> <preferred_name>
Triethylenetetramine

> <iupac>
N,N'-bis(2-aminoethyl)ethane-1,2-diamine

> <MPID>
25495

> <dsstox_substance_id>
DTXSID9023702

> <Canonical_QSARr>
NCCNCCNCCN

> <InChI_Code_QSARr>
InChI=1S/C6H18N4/c7-1-3-9-5-6-10-4-2-8/h9-10H,1-8H2

> <InChI Key_QSARr>
VILCJCGEZXAXTO-UHFFFAOYSA-N

> <Salt_Solvent>
?

> <LogVP>
-3.385

$$$$
100867
  -INDIGO-08031723152D

 32 31  0  0  0  0  0  0  0  0999 V2000
    5.5425    0.0000    0.0000 C   0  0  0  0  0  0  0  0  0  0  0  0
    6.9282    0.8000    0.0000 H   0  0  0  0  0  0  0  0  0  0  0  0
    6.9282   -0.8000    0.0000 H   0  0  0  0  0  0  0  0  0  0  0  0
    4.1570   -0.8000    0.0000 C   0  0  0  0  0  0  0  0  0  0  0  0
    3.5446   -2.2782    0.0000 H   0  0  0  0  0  0  0  0  0  0  0  0
    4.7692   -2.2782    0.0000 H   0  0  0  0  0  0  0  0  0  0  0  0
    2.7713    0.0000    0.0000 C   0  0  0  0  0  0  0  0  0  0  0  0
    3.3835    1.4782    0.0000 H   0  0  0  0  0  0  0  0  0  0  0  0
    2.1589    1.4782    0.0000 H   0  0  0  0  0  0  0  0  0  0  0  0
    1.3856   -0.8000    0.0000 C   0  0  0  0  0  0  0  0  0  0  0  0
    0.7732   -2.2782    0.0000 H   0  0  0  0  0  0  0  0  0  0  0  0
    1.9980   -2.2782    0.0000 H   0  0  0  0  0  0  0  0  0  0  0  0
   -0.0001    0.0000    0.0000 C   0  0  0  0  0  0  0  0  0  0  0  0
    0.6123    1.4782    0.0000 H   0  0  0  0  0  0  0  0  0  0  0  0
   -0.6122    1.4782    0.0000 H   0  0  0  0  0  0  0  0  0  0  0  0
   -1.3856   -0.8000    0.0000 C   0  0  0  0  0  0  0  0  0  0  0  0
   -1.9979   -2.2782    0.0000 H   0  0  0  0  0  0  0  0  0  0  0  0
   -0.7734   -2.2782    0.0000 H   0  0  0  0  0  0  0  0  0  0  0  0
   -2.7713    0.0000    0.0000 C   0  0  0  0  0  0  0  0  0  0  0  0
   -2.1589    1.4782    0.0000 H   0  0  0  0  0  0  0  0  0  0  0  0
   -3.3836    1.4782    0.0000 H   0  0  0  0  0  0  0  0  0  0  0  0
   -4.1570   -0.8000    0.0000 C   0  0  0  0  0  0  0  0  0  0  0  0
   -4.7691   -2.2782    0.0000 H   0  0  0  0  0  0  0  0  0  0  0  0
   -3.5446   -2.2782    0.0000 H   0  0  0  0  0  0  0  0  0  0  0  0
   -5.5427    0.0000    0.0000 C   0  0  0  0  0  0  0  0  0  0  0  0
   -4.9303    1.4782    0.0000 H   0  0  0  0  0  0  0  0  0  0  0  0
   -6.1548    1.4782    0.0000 H   0  0  0  0  0  0  0  0  0  0  0  0
   -6.9281   -0.8000    0.0000 C   0  0  0  0  0  0  0  0  0  0  0  0
   -8.3138   -1.6000    0.0000 H   0  0  0  0  0  0  0  0  0  0  0  0
   -8.3138    0.0000    0.0000 H   0  0  0  0  0  0  0  0  0  0  0  0
   -6.9281   -2.4000    0.0000 H   0  0  0  0  0  0  0  0  0  0  0  0
    5.5425    1.6000    0.0000 Br  0  0  0  0  0  0  0  0  0  0  0  0
  1  2  1  0  0  0  0
  1  3  1  0  0  0  0
  1  4  1  0  0  0  0
  4  5  1  0  0  0  0
  4  6  1  0  0  0  0
  4  7  1  0  0  0  0
  7  8  1  0  0  0  0
  7  9  1  0  0  0  0
  7 10  1  0  0  0  0
 10 11  1  0  0  0  0
 10 12  1  0  0  0  0
 10 13  1  0  0  0  0
 13 14  1  0  0  0  0
 13 15  1  0  0  0  0
 13 16  1  0  0  0  0
 16 17  1  0  0  0  0
 16 18  1  0  0  0  0
 16 19  1  0  0  0  0
 19 20  1  0  0  0  0
 19 21  1  0  0  0  0
 19 22  1  0  0  0  0
 22 23  1  0  0  0  0
 22 24  1  0  0  0  0
 22 25  1  0  0  0  0
 25 26  1  0  0  0  0
 25 27  1  0  0  0  0
 25 28  1  0  0  0  0
 28 29  1  0  0  0  0
 28 30  1  0  0  0  0
 28 31  1  0  0  0  0
  1 32  1  0  0  0  0
M  END
> <ChemID>
100867

> <source_casrn>
112-29-8

> <CAS>
112-29-8

> <SMILES>
CCCCCCCCCCBr

> <NAME>
1-BROMODECANE

> <preferred_name>
1-Bromodecane

> <iupac>
1-bromodecane

> <MPID>
25499

> <dsstox_substance_id>
DTXSID9051581

> <Canonical_QSARr>
CCCCCCCCCCBr

> <InChI_Code_QSARr>
InChI=1S/C10H21Br/c1-2-3-4-5-6-7-8-9-10-11/h2-10H2,1H3

> <InChI Key_QSARr>
MYMSJFSOOQERIO-UHFFFAOYSA-N

> <Salt_Solvent>
?

> <LogVP>
-1.3979

$$$$
100871
  -INDIGO-08031723152D

 29 28  0  0  0  0  0  0  0  0999 V2000
    1.3858    0.8000    0.0000 O   0  0  0  0  0  0  0  0  0  0  0  0
    2.7713   -0.0000    0.0000 C   0  0  0  0  0  0  0  0  0  0  0  0
    2.1591   -1.4782    0.0000 H   0  0  0  0  0  0  0  0  0  0  0  0
    3.3836   -1.4782    0.0000 H   0  0  0  0  0  0  0  0  0  0  0  0
    4.1569    0.8000    0.0000 C   0  0  0  0  0  0  0  0  0  0  0  0
    4.7692    2.2782    0.0000 H   0  0  0  0  0  0  0  0  0  0  0  0
    3.5447    2.2782    0.0000 H   0  0  0  0  0  0  0  0  0  0  0  0
    5.5425   -0.0000    0.0000 O   0  0  0  0  0  0  0  0  0  0  0  0
    6.9283    0.8000    0.0000 C   0  0  0  0  0  0  0  0  0  0  0  0
    7.5406    2.2782    0.0000 H   0  0  0  0  0  0  0  0  0  0  0  0
    6.3158    2.2782    0.0000 H   0  0  0  0  0  0  0  0  0  0  0  0
    8.3139   -0.0000    0.0000 C   0  0  0  0  0  0  0  0  0  0  0  0
    9.6995   -0.8000    0.0000 H   0  0  0  0  0  0  0  0  0  0  0  0
    9.6995    0.8000    0.0000 H   0  0  0  0  0  0  0  0  0  0  0  0
    8.3139   -1.6000    0.0000 H   0  0  0  0  0  0  0  0  0  0  0  0
   -0.0001   -0.0000    0.0000 C   0  0  0  0  0  0  0  0  0  0  0  0
   -0.6123   -1.4782    0.0000 H   0  0  0  0  0  0  0  0  0  0  0  0
    0.6122   -1.4782    0.0000 H   0  0  0  0  0  0  0  0  0  0  0  0
   -1.3856    0.8000    0.0000 C   0  0  0  0  0  0  0  0  0  0  0  0
   -0.7734    2.2782    0.0000 H   0  0  0  0  0  0  0  0  0  0  0  0
   -1.9979    2.2782    0.0000 H   0  0  0  0  0  0  0  0  0  0  0  0
   -2.7712   -0.0000    0.0000 O   0  0  0  0  0  0  0  0  0  0  0  0
   -4.1568    0.8000    0.0000 C   0  0  0  0  0  0  0  0  0  0  0  0
   -3.5446    2.2782    0.0000 H   0  0  0  0  0  0  0  0  0  0  0  0
   -4.7693    2.2782    0.0000 H   0  0  0  0  0  0  0  0  0  0  0  0
   -5.5426   -0.0000    0.0000 C   0  0  0  0  0  0  0  0  0  0  0  0
   -6.9282   -0.8000    0.0000 H   0  0  0  0  0  0  0  0  0  0  0  0
   -6.9282    0.8000    0.0000 H   0  0  0  0  0  0  0  0  0  0  0  0
   -5.5426   -1.6000    0.0000 H   0  0  0  0  0  0  0  0  0  0  0  0
  1  2  1  0  0  0  0
  2  3  1  0  0  0  0
  2  4  1  0  0  0  0
  2  5  1  0  0  0  0
  5  6  1  0  0  0  0
  5  7  1  0  0  0  0
  5  8  1  0  0  0  0
  8  9  1  0  0  0  0
  9 10  1  0  0  0  0
  9 11  1  0  0  0  0
  9 12  1  0  0  0  0
 12 13  1  0  0  0  0
 12 14  1  0  0  0  0
 12 15  1  0  0  0  0
  1 16  1  0  0  0  0
 16 17  1  0  0  0  0
 16 18  1  0  0  0  0
 16 19  1  0  0  0  0
 19 20  1  0  0  0  0
 19 21  1  0  0  0  0
 19 22  1  0  0  0  0
 22 23  1  0  0  0  0
 23 24  1  0  0  0  0
 23 25  1  0  0  0  0
 23 26  1  0  0  0  0
 26 27  1  0  0  0  0
 26 28  1  0  0  0  0
 26 29  1  0  0  0  0
M  END
> <ChemID>
100871

> <source_casrn>
112-36-7

> <CAS>
112-36-7

> <SMILES>
CCOCCOCCOCC

> <NAME>
BIS (2-ETHOXY ETHYL)  ETHER

> <preferred_name>
Diethylene glycol diethyl ether

> <iupac>
1-ethoxy-2-(2-ethoxyethoxy)ethane

> <MPID>
25503

> <dsstox_substance_id>
DTXSID3025047

> <Canonical_QSARr>
CCOCCOCCOCC

> <InChI_Code_QSARr>
InChI=1S/C8H18O3/c1-3-9-5-7-11-8-6-10-4-2/h3-8H2,1-2H3

> <InChI Key_QSARr>
RRQYJINTUHWNHW-UHFFFAOYSA-N

> <Salt_Solvent>
?

> <LogVP>
-0.2836

$$$$
100875
  -INDIGO-08031723152D

 38 37  0  0  0  0  0  0  0  0999 V2000
    6.9282   -0.8000    0.0000 C   0  0  0  0  0  0  0  0  0  0  0  0
    8.3138   -1.6000    0.0000 H   0  0  0  0  0  0  0  0  0  0  0  0
    8.3138    0.0000    0.0000 H   0  0  0  0  0  0  0  0  0  0  0  0
    6.9282   -2.4000    0.0000 H   0  0  0  0  0  0  0  0  0  0  0  0
    5.5426    0.0000    0.0000 C   0  0  0  0  0  0  0  0  0  0  0  0
    6.1548    1.4782    0.0000 H   0  0  0  0  0  0  0  0  0  0  0  0
    4.9302    1.4782    0.0000 H   0  0  0  0  0  0  0  0  0  0  0  0
    4.1570   -0.8000    0.0000 C   0  0  0  0  0  0  0  0  0  0  0  0
    3.5446   -2.2782    0.0000 H   0  0  0  0  0  0  0  0  0  0  0  0
    4.7692   -2.2782    0.0000 H   0  0  0  0  0  0  0  0  0  0  0  0
    2.7712    0.0000    0.0000 C   0  0  0  0  0  0  0  0  0  0  0  0
    3.3836    1.4782    0.0000 H   0  0  0  0  0  0  0  0  0  0  0  0
    2.1590    1.4782    0.0000 H   0  0  0  0  0  0  0  0  0  0  0  0
    1.3856   -0.8000    0.0000 C   0  0  0  0  0  0  0  0  0  0  0  0
    0.7735   -2.2782    0.0000 H   0  0  0  0  0  0  0  0  0  0  0  0
    1.9980   -2.2782    0.0000 H   0  0  0  0  0  0  0  0  0  0  0  0
   -0.0000    0.0000    0.0000 C   0  0  0  0  0  0  0  0  0  0  0  0
    0.6124    1.4782    0.0000 H   0  0  0  0  0  0  0  0  0  0  0  0
   -0.6124    1.4782    0.0000 H   0  0  0  0  0  0  0  0  0  0  0  0
   -1.3856   -0.8000    0.0000 C   0  0  0  0  0  0  0  0  0  0  0  0
   -1.9980   -2.2782    0.0000 H   0  0  0  0  0  0  0  0  0  0  0  0
   -0.7732   -2.2782    0.0000 H   0  0  0  0  0  0  0  0  0  0  0  0
   -2.7712    0.0000    0.0000 C   0  0  0  0  0  0  0  0  0  0  0  0
   -2.1591    1.4782    0.0000 H   0  0  0  0  0  0  0  0  0  0  0  0
   -3.3836    1.4782    0.0000 H   0  0  0  0  0  0  0  0  0  0  0  0
   -4.1568   -0.8000    0.0000 C   0  0  0  0  0  0  0  0  0  0  0  0
   -4.7692   -2.2782    0.0000 H   0  0  0  0  0  0  0  0  0  0  0  0
   -3.5447   -2.2782    0.0000 H   0  0  0  0  0  0  0  0  0  0  0  0
   -5.5427    0.0000    0.0000 C   0  0  0  0  0  0  0  0  0  0  0  0
   -4.9303    1.4782    0.0000 H   0  0  0  0  0  0  0  0  0  0  0  0
   -6.1548    1.4782    0.0000 H   0  0  0  0  0  0  0  0  0  0  0  0
   -6.9283   -0.8000    0.0000 C   0  0  0  0  0  0  0  0  0  0  0  0
   -7.5404   -2.2782    0.0000 H   0  0  0  0  0  0  0  0  0  0  0  0
   -6.3159   -2.2782    0.0000 H   0  0  0  0  0  0  0  0  0  0  0  0
   -8.3139    0.0000    0.0000 C   0  0  0  0  0  0  0  0  0  0  0  0
   -9.6995    0.8000    0.0000 H   0  0  0  0  0  0  0  0  0  0  0  0
   -9.6995   -0.8000    0.0000 H   0  0  0  0  0  0  0  0  0  0  0  0
   -8.3139    1.6000    0.0000 H   0  0  0  0  0  0  0  0  0  0  0  0
  1  2  1  0  0  0  0
  1  3  1  0  0  0  0
  1  4  1  0  0  0  0
  1  5  1  0  0  0  0
  5  6  1  0  0  0  0
  5  7  1  0  0  0  0
  5  8  1  0  0  0  0
  8  9  1  0  0  0  0
  8 10  1  0  0  0  0
  8 11  1  0  0  0  0
 11 12  1  0  0  0  0
 11 13  1  0  0  0  0
 11 14  1  0  0  0  0
 14 15  1  0  0  0  0
 14 16  1  0  0  0  0
 14 17  1  0  0  0  0
 17 18  1  0  0  0  0
 17 19  1  0  0  0  0
 17 20  1  0  0  0  0
 20 21  1  0  0  0  0
 20 22  1  0  0  0  0
 20 23  1  0  0  0  0
 23 24  1  0  0  0  0
 23 25  1  0  0  0  0
 23 26  1  0  0  0  0
 26 27  1  0  0  0  0
 26 28  1  0  0  0  0
 26 29  1  0  0  0  0
 29 30  1  0  0  0  0
 29 31  1  0  0  0  0
 29 32  1  0  0  0  0
 32 33  1  0  0  0  0
 32 34  1  0  0  0  0
 32 35  1  0  0  0  0
 35 36  1  0  0  0  0
 35 37  1  0  0  0  0
 35 38  1  0  0  0  0
M  END
> <ChemID>
100875

> <source_casrn>
112-40-3

> <CAS>
112-40-3

> <SMILES>
CCCCCCCCCCCC

> <NAME>
DODECANE

> <preferred_name>
Dodecane

> <iupac>
dodecane

> <MPID>
25507

> <dsstox_substance_id>
DTXSID0026913

> <Canonical_QSARr>
CCCCCCCCCCCC

> <InChI_Code_QSARr>
InChI=1S/C12H26/c1-3-5-7-9-11-12-10-8-6-4-2/h3-12H2,1-2H3

> <InChI Key_QSARr>
SNRUBQQJIBEYMU-UHFFFAOYSA-N

> <Salt_Solvent>
?

> <LogVP>
-0.8697

$$$$
100879
  -INDIGO-08031723152D

 30 29  0  0  0  0  0  0  0  0999 V2000
   -0.0000    0.0000    0.0000 C   0  0  0  0  0  0  0  0  0  0  0  0
    0.6124    1.4782    0.0000 H   0  0  0  0  0  0  0  0  0  0  0  0
   -0.6124    1.4782    0.0000 H   0  0  0  0  0  0  0  0  0  0  0  0
    1.3856   -0.8000    0.0000 O   0  0  0  0  0  0  0  0  0  0  0  0
    2.7712    0.0000    0.0000 C   0  0  0  0  0  0  0  0  0  0  0  0
    3.3836    1.4782    0.0000 H   0  0  0  0  0  0  0  0  0  0  0  0
    2.1590    1.4782    0.0000 H   0  0  0  0  0  0  0  0  0  0  0  0
    4.1570   -0.8000    0.0000 C   0  0  0  0  0  0  0  0  0  0  0  0
    3.5446   -2.2782    0.0000 H   0  0  0  0  0  0  0  0  0  0  0  0
    4.7692   -2.2782    0.0000 H   0  0  0  0  0  0  0  0  0  0  0  0
    5.5426    0.0000    0.0000 O   0  0  0  0  0  0  0  0  0  0  0  0
    6.9282   -0.8000    0.0000 C   0  0  0  0  0  0  0  0  0  0  0  0
    8.3138   -1.6000    0.0000 H   0  0  0  0  0  0  0  0  0  0  0  0
    8.3138    0.0000    0.0000 H   0  0  0  0  0  0  0  0  0  0  0  0
    6.9282   -2.4000    0.0000 H   0  0  0  0  0  0  0  0  0  0  0  0
   -1.3856   -0.8000    0.0000 C   0  0  0  0  0  0  0  0  0  0  0  0
   -1.9980   -2.2782    0.0000 H   0  0  0  0  0  0  0  0  0  0  0  0
   -0.7732   -2.2782    0.0000 H   0  0  0  0  0  0  0  0  0  0  0  0
   -2.7712    0.0000    0.0000 O   0  0  0  0  0  0  0  0  0  0  0  0
   -4.1568   -0.8000    0.0000 C   0  0  0  0  0  0  0  0  0  0  0  0
   -4.7692   -2.2782    0.0000 H   0  0  0  0  0  0  0  0  0  0  0  0
   -3.5447   -2.2782    0.0000 H   0  0  0  0  0  0  0  0  0  0  0  0
   -5.5427    0.0000    0.0000 C   0  0  0  0  0  0  0  0  0  0  0  0
   -4.9303    1.4782    0.0000 H   0  0  0  0  0  0  0  0  0  0  0  0
   -6.1548    1.4782    0.0000 H   0  0  0  0  0  0  0  0  0  0  0  0
   -6.9283   -0.8000    0.0000 O   0  0  0  0  0  0  0  0  0  0  0  0
   -8.3139    0.0000    0.0000 C   0  0  0  0  0  0  0  0  0  0  0  0
   -9.6995    0.8000    0.0000 H   0  0  0  0  0  0  0  0  0  0  0  0
   -9.6995   -0.8000    0.0000 H   0  0  0  0  0  0  0  0  0  0  0  0
   -8.3139    1.6000    0.0000 H   0  0  0  0  0  0  0  0  0  0  0  0
  1  2  1  0  0  0  0
  1  3  1  0  0  0  0
  1  4  1  0  0  0  0
  4  5  1  0  0  0  0
  5  6  1  0  0  0  0
  5  7  1  0  0  0  0
  5  8  1  0  0  0  0
  8  9  1  0  0  0  0
  8 10  1  0  0  0  0
  8 11  1  0  0  0  0
 11 12  1  0  0  0  0
 12 13  1  0  0  0  0
 12 14  1  0  0  0  0
 12 15  1  0  0  0  0
  1 16  1  0  0  0  0
 16 17  1  0  0  0  0
 16 18  1  0  0  0  0
 16 19  1  0  0  0  0
 19 20  1  0  0  0  0
 20 21  1  0  0  0  0
 20 22  1  0  0  0  0
 20 23  1  0  0  0  0
 23 24  1  0  0  0  0
 23 25  1  0  0  0  0
 23 26  1  0  0  0  0
 26 27  1  0  0  0  0
 27 28  1  0  0  0  0
 27 29  1  0  0  0  0
 27 30  1  0  0  0  0
M  END
> <ChemID>
100879

> <source_casrn>
112-49-2

> <CAS>
112-49-2

> <SMILES>
COCCOCCOCCOC

> <NAME>
2,5,8,11-TETRAOXADODECANE

> <preferred_name>
Triethylene glycol dimethyl ether

> <iupac>
2,5,8,11-tetraoxadodecane

> <MPID>
25511

> <dsstox_substance_id>
DTXSID8026224

> <Canonical_QSARr>
COCCOCCOCCOC

> <InChI_Code_QSARr>
InChI=1S/C8H18O4/c1-9-3-5-11-7-8-12-6-4-10-2/h3-8H2,1-2H3

> <InChI Key_QSARr>
YFNKIDBQEZZDLK-UHFFFAOYSA-N

> <Salt_Solvent>
?

> <LogVP>
-1.3944

$$$$
100883
  -INDIGO-08031723152D

 39 38  0  0  0  0  0  0  0  0999 V2000
    6.9282    0.8000    0.0000 C   0  0  0  0  0  0  0  0  0  0  0  0
    7.5404    2.2782    0.0000 H   0  0  0  0  0  0  0  0  0  0  0  0
    6.3158    2.2782    0.0000 H   0  0  0  0  0  0  0  0  0  0  0  0
    5.5426   -0.0000    0.0000 C   0  0  0  0  0  0  0  0  0  0  0  0
    4.9302   -1.4782    0.0000 H   0  0  0  0  0  0  0  0  0  0  0  0
    6.1548   -1.4782    0.0000 H   0  0  0  0  0  0  0  0  0  0  0  0
    4.1570    0.8000    0.0000 C   0  0  0  0  0  0  0  0  0  0  0  0
    4.7692    2.2782    0.0000 H   0  0  0  0  0  0  0  0  0  0  0  0
    3.5446    2.2782    0.0000 H   0  0  0  0  0  0  0  0  0  0  0  0
    2.7714   -0.0000    0.0000 C   0  0  0  0  0  0  0  0  0  0  0  0
    2.1589   -1.4782    0.0000 H   0  0  0  0  0  0  0  0  0  0  0  0
    3.3835   -1.4782    0.0000 H   0  0  0  0  0  0  0  0  0  0  0  0
    1.3858    0.8000    0.0000 C   0  0  0  0  0  0  0  0  0  0  0  0
    1.9979    2.2782    0.0000 H   0  0  0  0  0  0  0  0  0  0  0  0
    0.7733    2.2782    0.0000 H   0  0  0  0  0  0  0  0  0  0  0  0
    0.0001   -0.0000    0.0000 C   0  0  0  0  0  0  0  0  0  0  0  0
   -0.6123   -1.4782    0.0000 H   0  0  0  0  0  0  0  0  0  0  0  0
    0.6123   -1.4782    0.0000 H   0  0  0  0  0  0  0  0  0  0  0  0
   -1.3858    0.8000    0.0000 C   0  0  0  0  0  0  0  0  0  0  0  0
   -0.7733    2.2782    0.0000 H   0  0  0  0  0  0  0  0  0  0  0  0
   -1.9979    2.2782    0.0000 H   0  0  0  0  0  0  0  0  0  0  0  0
   -2.7714   -0.0000    0.0000 C   0  0  0  0  0  0  0  0  0  0  0  0
   -3.3835   -1.4782    0.0000 H   0  0  0  0  0  0  0  0  0  0  0  0
   -2.1589   -1.4782    0.0000 H   0  0  0  0  0  0  0  0  0  0  0  0
   -4.1570    0.8000    0.0000 C   0  0  0  0  0  0  0  0  0  0  0  0
   -3.5446    2.2782    0.0000 H   0  0  0  0  0  0  0  0  0  0  0  0
   -4.7692    2.2782    0.0000 H   0  0  0  0  0  0  0  0  0  0  0  0
   -5.5426   -0.0000    0.0000 C   0  0  0  0  0  0  0  0  0  0  0  0
   -6.1548   -1.4782    0.0000 H   0  0  0  0  0  0  0  0  0  0  0  0
   -4.9302   -1.4782    0.0000 H   0  0  0  0  0  0  0  0  0  0  0  0
   -6.9282    0.8000    0.0000 C   0  0  0  0  0  0  0  0  0  0  0  0
   -6.3158    2.2782    0.0000 H   0  0  0  0  0  0  0  0  0  0  0  0
   -7.5404    2.2782    0.0000 H   0  0  0  0  0  0  0  0  0  0  0  0
   -8.3139   -0.0000    0.0000 C   0  0  0  0  0  0  0  0  0  0  0  0
   -9.6995   -0.8000    0.0000 H   0  0  0  0  0  0  0  0  0  0  0  0
   -9.6995    0.8000    0.0000 H   0  0  0  0  0  0  0  0  0  0  0  0
   -8.3139   -1.6000    0.0000 H   0  0  0  0  0  0  0  0  0  0  0  0
    8.3139   -0.0000    0.0000 O   0  0  0  0  0  0  0  0  0  0  0  0
    9.6995    0.8000    0.0000 H   0  0  0  0  0  0  0  0  0  0  0  0
  1  2  1  0  0  0  0
  1  3  1  0  0  0  0
  1  4  1  0  0  0  0
  4  5  1  0  0  0  0
  4  6  1  0  0  0  0
  4  7  1  0  0  0  0
  7  8  1  0  0  0  0
  7  9  1  0  0  0  0
  7 10  1  0  0  0  0
 10 11  1  0  0  0  0
 10 12  1  0  0  0  0
 10 13  1  0  0  0  0
 13 14  1  0  0  0  0
 13 15  1  0  0  0  0
 13 16  1  0  0  0  0
 16 17  1  0  0  0  0
 16 18  1  0  0  0  0
 16 19  1  0  0  0  0
 19 20  1  0  0  0  0
 19 21  1  0  0  0  0
 19 22  1  0  0  0  0
 22 23  1  0  0  0  0
 22 24  1  0  0  0  0
 22 25  1  0  0  0  0
 25 26  1  0  0  0  0
 25 27  1  0  0  0  0
 25 28  1  0  0  0  0
 28 29  1  0  0  0  0
 28 30  1  0  0  0  0
 28 31  1  0  0  0  0
 31 32  1  0  0  0  0
 31 33  1  0  0  0  0
 31 34  1  0  0  0  0
 34 35  1  0  0  0  0
 34 36  1  0  0  0  0
 34 37  1  0  0  0  0
  1 38  1  0  0  0  0
 38 39  1  0  0  0  0
M  END
> <ChemID>
100883

> <source_casrn>
112-53-8

> <CAS>
112-53-8

> <SMILES>
CCCCCCCCCCCCO

> <NAME>
DODECANOL

> <preferred_name>
1-Dodecanol

> <iupac>
dodecan-1-ol

> <MPID>
25515

> <dsstox_substance_id>
DTXSID5026918

> <Canonical_QSARr>
CCCCCCCCCCCCO

> <InChI_Code_QSARr>
InChI=1S/C12H26O/c1-2-3-4-5-6-7-8-9-10-11-12-13/h13H,2-12H2,1H3

> <InChI Key_QSARr>
LQZZUXJYWNFBMV-UHFFFAOYSA-N

> <Salt_Solvent>
?

> <LogVP>
-3.0716

$$$$
100887
  -INDIGO-08031723152D

 39 38  0  0  0  0  0  0  0  0999 V2000
    4.1571    0.8000    0.0000 O   0  0  0  0  0  0  0  0  0  0  0  0
    5.5427    0.0000    0.0000 C   0  0  0  0  0  0  0  0  0  0  0  0
    4.9302   -1.4782    0.0000 H   0  0  0  0  0  0  0  0  0  0  0  0
    6.1548   -1.4782    0.0000 H   0  0  0  0  0  0  0  0  0  0  0  0
    6.9283    0.8000    0.0000 C   0  0  0  0  0  0  0  0  0  0  0  0
    7.5405    2.2782    0.0000 H   0  0  0  0  0  0  0  0  0  0  0  0
    6.3159    2.2782    0.0000 H   0  0  0  0  0  0  0  0  0  0  0  0
    8.3139    0.0000    0.0000 C   0  0  0  0  0  0  0  0  0  0  0  0
    7.7015   -1.4782    0.0000 H   0  0  0  0  0  0  0  0  0  0  0  0
    8.9261   -1.4782    0.0000 H   0  0  0  0  0  0  0  0  0  0  0  0
    9.6995    0.8000    0.0000 C   0  0  0  0  0  0  0  0  0  0  0  0
   10.3117    2.2782    0.0000 H   0  0  0  0  0  0  0  0  0  0  0  0
    9.0871    2.2782    0.0000 H   0  0  0  0  0  0  0  0  0  0  0  0
   11.0852    0.0000    0.0000 C   0  0  0  0  0  0  0  0  0  0  0  0
   10.4727   -1.4782    0.0000 H   0  0  0  0  0  0  0  0  0  0  0  0
   11.6973   -1.4782    0.0000 H   0  0  0  0  0  0  0  0  0  0  0  0
   12.4708    0.8000    0.0000 C   0  0  0  0  0  0  0  0  0  0  0  0
   13.8564    1.6000    0.0000 H   0  0  0  0  0  0  0  0  0  0  0  0
   13.8564    0.0000    0.0000 H   0  0  0  0  0  0  0  0  0  0  0  0
   12.4708    2.4000    0.0000 H   0  0  0  0  0  0  0  0  0  0  0  0
    2.7712    0.0000    0.0000 C   0  0  0  0  0  0  0  0  0  0  0  0
    2.1590   -1.4782    0.0000 H   0  0  0  0  0  0  0  0  0  0  0  0
    3.3836   -1.4782    0.0000 H   0  0  0  0  0  0  0  0  0  0  0  0
    1.3855    0.8000    0.0000 C   0  0  0  0  0  0  0  0  0  0  0  0
    1.9980    2.2782    0.0000 H   0  0  0  0  0  0  0  0  0  0  0  0
    0.7734    2.2782    0.0000 H   0  0  0  0  0  0  0  0  0  0  0  0
   -0.0001    0.0000    0.0000 C   0  0  0  0  0  0  0  0  0  0  0  0
   -0.6122   -1.4782    0.0000 H   0  0  0  0  0  0  0  0  0  0  0  0
    0.6124   -1.4782    0.0000 H   0  0  0  0  0  0  0  0  0  0  0  0
   -1.3857    0.8000    0.0000 C   0  0  0  0  0  0  0  0  0  0  0  0
   -0.7733    2.2782    0.0000 H   0  0  0  0  0  0  0  0  0  0  0  0
   -1.9979    2.2782    0.0000 H   0  0  0  0  0  0  0  0  0  0  0  0
   -2.7713    0.0000    0.0000 C   0  0  0  0  0  0  0  0  0  0  0  0
   -3.3835   -1.4782    0.0000 H   0  0  0  0  0  0  0  0  0  0  0  0
   -2.1589   -1.4782    0.0000 H   0  0  0  0  0  0  0  0  0  0  0  0
   -4.1569    0.8000    0.0000 C   0  0  0  0  0  0  0  0  0  0  0  0
   -5.5426    1.6000    0.0000 H   0  0  0  0  0  0  0  0  0  0  0  0
   -5.5426    0.0000    0.0000 H   0  0  0  0  0  0  0  0  0  0  0  0
   -4.1569    2.4000    0.0000 H   0  0  0  0  0  0  0  0  0  0  0  0
  1  2  1  0  0  0  0
  2  3  1  0  0  0  0
  2  4  1  0  0  0  0
  2  5  1  0  0  0  0
  5  6  1  0  0  0  0
  5  7  1  0  0  0  0
  5  8  1  0  0  0  0
  8  9  1  0  0  0  0
  8 10  1  0  0  0  0
  8 11  1  0  0  0  0
 11 12  1  0  0  0  0
 11 13  1  0  0  0  0
 11 14  1  0  0  0  0
 14 15  1  0  0  0  0
 14 16  1  0  0  0  0
 14 17  1  0  0  0  0
 17 18  1  0  0  0  0
 17 19  1  0  0  0  0
 17 20  1  0  0  0  0
  1 21  1  0  0  0  0
 21 22  1  0  0  0  0
 21 23  1  0  0  0  0
 21 24  1  0  0  0  0
 24 25  1  0  0  0  0
 24 26  1  0  0  0  0
 24 27  1  0  0  0  0
 27 28  1  0  0  0  0
 27 29  1  0  0  0  0
 27 30  1  0  0  0  0
 30 31  1  0  0  0  0
 30 32  1  0  0  0  0
 30 33  1  0  0  0  0
 33 34  1  0  0  0  0
 33 35  1  0  0  0  0
 33 36  1  0  0  0  0
 36 37  1  0  0  0  0
 36 38  1  0  0  0  0
 36 39  1  0  0  0  0
M  END
> <ChemID>
100887

> <source_casrn>
112-58-3

> <CAS>
112-58-3

> <SMILES>
CCCCCCOCCCCCC

> <NAME>
DI-N-HEXYL ETHER

> <preferred_name>
Hexane, 1,1'-oxybis-

> <iupac>
1-hexoxyhexane

> <MPID>
25519

> <dsstox_substance_id>
DTXSID8059421

> <Canonical_QSARr>
CCCCCCOCCCCCC

> <InChI_Code_QSARr>
InChI=1S/C12H26O/c1-3-5-7-9-11-13-12-10-8-6-4-2/h3-12H2,1-2H3

> <InChI Key_QSARr>
BPIUIOXAFBGMNB-UHFFFAOYSA-N

> <Salt_Solvent>
?

> <LogVP>
-1.3363

$$$$
100891
  -INDIGO-08031723152D

 57 56  0  0  0  0  0  0  0  0999 V2000
   20.7845    0.8000    0.0000 C   0  0  0  0  0  0  0  0  0  0  0  0
   22.1702    1.6000    0.0000 H   0  0  0  0  0  0  0  0  0  0  0  0
   22.1702    0.0000    0.0000 H   0  0  0  0  0  0  0  0  0  0  0  0
   20.7845    2.4000    0.0000 H   0  0  0  0  0  0  0  0  0  0  0  0
   19.3992    0.0000    0.0000 O   0  0  0  0  0  0  0  0  0  0  0  0
   18.0134    0.8000    0.0000 C   0  0  0  0  0  0  0  0  0  0  0  0
   18.0134    2.4000    0.0000 O   0  0  0  0  0  0  0  0  0  0  0  0
   16.6276    0.0000    0.0000 C   0  0  0  0  0  0  0  0  0  0  0  0
   16.0153   -1.4782    0.0000 H   0  0  0  0  0  0  0  0  0  0  0  0
   17.2399   -1.4782    0.0000 H   0  0  0  0  0  0  0  0  0  0  0  0
   15.2419    0.8000    0.0000 C   0  0  0  0  0  0  0  0  0  0  0  0
   15.8542    2.2782    0.0000 H   0  0  0  0  0  0  0  0  0  0  0  0
   14.6296    2.2782    0.0000 H   0  0  0  0  0  0  0  0  0  0  0  0
   13.8565    0.0000    0.0000 C   0  0  0  0  0  0  0  0  0  0  0  0
   13.2442   -1.4782    0.0000 H   0  0  0  0  0  0  0  0  0  0  0  0
   14.4688   -1.4782    0.0000 H   0  0  0  0  0  0  0  0  0  0  0  0
   12.4708    0.8000    0.0000 C   0  0  0  0  0  0  0  0  0  0  0  0
   13.0831    2.2782    0.0000 H   0  0  0  0  0  0  0  0  0  0  0  0
   11.8585    2.2782    0.0000 H   0  0  0  0  0  0  0  0  0  0  0  0
   11.0850    0.0000    0.0000 C   0  0  0  0  0  0  0  0  0  0  0  0
   10.4727   -1.4782    0.0000 H   0  0  0  0  0  0  0  0  0  0  0  0
   11.6973   -1.4782    0.0000 H   0  0  0  0  0  0  0  0  0  0  0  0
    9.6997    0.8000    0.0000 C   0  0  0  0  0  0  0  0  0  0  0  0
   10.3120    2.2782    0.0000 H   0  0  0  0  0  0  0  0  0  0  0  0
    9.0874    2.2782    0.0000 H   0  0  0  0  0  0  0  0  0  0  0  0
    8.3139    0.0000    0.0000 C   0  0  0  0  0  0  0  0  0  0  0  0
    7.7016   -1.4782    0.0000 H   0  0  0  0  0  0  0  0  0  0  0  0
    8.9262   -1.4782    0.0000 H   0  0  0  0  0  0  0  0  0  0  0  0
    6.9281    0.8000    0.0000 C   0  0  0  0  0  0  0  0  0  0  0  0
    6.9281    2.4000    0.0000 H   0  0  0  0  0  0  0  0  0  0  0  0
    5.5424    0.0000    0.0000 C   0  0  0  0  0  0  0  0  0  0  0  0
    5.5424   -1.6000    0.0000 H   0  0  0  0  0  0  0  0  0  0  0  0
    4.1570    0.8000    0.0000 C   0  0  0  0  0  0  0  0  0  0  0  0
    4.7693    2.2782    0.0000 H   0  0  0  0  0  0  0  0  0  0  0  0
    3.5448    2.2782    0.0000 H   0  0  0  0  0  0  0  0  0  0  0  0
    2.7713    0.0000    0.0000 C   0  0  0  0  0  0  0  0  0  0  0  0
    2.1590   -1.4782    0.0000 H   0  0  0  0  0  0  0  0  0  0  0  0
    3.3836   -1.4782    0.0000 H   0  0  0  0  0  0  0  0  0  0  0  0
    1.3855    0.8000    0.0000 C   0  0  0  0  0  0  0  0  0  0  0  0
    1.9978    2.2782    0.0000 H   0  0  0  0  0  0  0  0  0  0  0  0
    0.7732    2.2782    0.0000 H   0  0  0  0  0  0  0  0  0  0  0  0
    0.0002    0.0000    0.0000 C   0  0  0  0  0  0  0  0  0  0  0  0
   -0.6121   -1.4782    0.0000 H   0  0  0  0  0  0  0  0  0  0  0  0
    0.6125   -1.4782    0.0000 H   0  0  0  0  0  0  0  0  0  0  0  0
   -1.3856    0.8000    0.0000 C   0  0  0  0  0  0  0  0  0  0  0  0
   -0.7733    2.2782    0.0000 H   0  0  0  0  0  0  0  0  0  0  0  0
   -1.9979    2.2782    0.0000 H   0  0  0  0  0  0  0  0  0  0  0  0
   -2.7713    0.0000    0.0000 C   0  0  0  0  0  0  0  0  0  0  0  0
   -3.3836   -1.4782    0.0000 H   0  0  0  0  0  0  0  0  0  0  0  0
   -2.1590   -1.4782    0.0000 H   0  0  0  0  0  0  0  0  0  0  0  0
   -4.1571    0.8000    0.0000 C   0  0  0  0  0  0  0  0  0  0  0  0
   -3.5448    2.2782    0.0000 H   0  0  0  0  0  0  0  0  0  0  0  0
   -4.7694    2.2782    0.0000 H   0  0  0  0  0  0  0  0  0  0  0  0
   -5.5424    0.0000    0.0000 C   0  0  0  0  0  0  0  0  0  0  0  0
   -6.9282   -0.8000    0.0000 H   0  0  0  0  0  0  0  0  0  0  0  0
   -6.9282    0.8000    0.0000 H   0  0  0  0  0  0  0  0  0  0  0  0
   -5.5424   -1.6000    0.0000 H   0  0  0  0  0  0  0  0  0  0  0  0
  1  2  1  0  0  0  0
  1  3  1  0  0  0  0
  1  4  1  0  0  0  0
  1  5  1  0  0  0  0
  5  6  1  0  0  0  0
  6  7  2  0  0  0  0
  6  8  1  0  0  0  0
  8  9  1  0  0  0  0
  8 10  1  0  0  0  0
  8 11  1  0  0  0  0
 11 12  1  0  0  0  0
 11 13  1  0  0  0  0
 11 14  1  0  0  0  0
 14 15  1  0  0  0  0
 14 16  1  0  0  0  0
 14 17  1  0  0  0  0
 17 18  1  0  0  0  0
 17 19  1  0  0  0  0
 17 20  1  0  0  0  0
 20 21  1  0  0  0  0
 20 22  1  0  0  0  0
 20 23  1  0  0  0  0
 23 24  1  0  0  0  0
 23 25  1  0  0  0  0
 23 26  1  0  0  0  0
 26 27  1  0  0  0  0
 26 28  1  0  0  0  0
 26 29  1  0  0  0  0
 29 30  1  0  0  0  0
 29 31  2  0  0  0  0
 31 32  1  0  0  0  0
 31 33  1  0  0  0  0
 33 34  1  0  0  0  0
 33 35  1  0  0  0  0
 33 36  1  0  0  0  0
 36 37  1  0  0  0  0
 36 38  1  0  0  0  0
 36 39  1  0  0  0  0
 39 40  1  0  0  0  0
 39 41  1  0  0  0  0
 39 42  1  0  0  0  0
 42 43  1  0  0  0  0
 42 44  1  0  0  0  0
 42 45  1  0  0  0  0
 45 46  1  0  0  0  0
 45 47  1  0  0  0  0
 45 48  1  0  0  0  0
 48 49  1  0  0  0  0
 48 50  1  0  0  0  0
 48 51  1  0  0  0  0
 51 52  1  0  0  0  0
 51 53  1  0  0  0  0
 51 54  1  0  0  0  0
 54 55  1  0  0  0  0
 54 56  1  0  0  0  0
 54 57  1  0  0  0  0
M  END
> <ChemID>
100891

> <source_casrn>
112-62-9

> <CAS>
112-62-9

> <SMILES>
CCCCCCCC/C=C\CCCCCCCC(=O)OC

> <NAME>
METHYL OLEATE

> <preferred_name>
Methyl (9Z)-octadec-9-enoate

> <iupac>
methyl (9Z)-octadec-9-enoate

> <MPID>
25523

> <dsstox_substance_id>
DTXSID5025811

> <Canonical_QSARr>
CCCCCCCCC=CCCCCCCCC(=O)OC

> <InChI_Code_QSARr>
InChI=1S/C19H36O2/c1-3-4-5-6-7-8-9-10-11-12-13-14-15-16-17-18-19(20)21-2/h10-11H,3-9,12-18H2,1-2H3/b11-10+

> <InChI Key_QSARr>
QYDYPVFESGNLHU-ZHACJKMWSA-N

> <Salt_Solvent>
?

> <LogVP>
-5.2013

$$$$
100895
  -INDIGO-08031723152D

 45 44  0  0  0  0  0  0  0  0999 V2000
   -8.3138    0.0000    0.0000 C   0  0  0  0  0  0  0  0  0  0  0  0
   -7.7015   -1.4782    0.0000 H   0  0  0  0  0  0  0  0  0  0  0  0
   -8.9261   -1.4782    0.0000 H   0  0  0  0  0  0  0  0  0  0  0  0
   -6.9281    0.8000    0.0000 C   0  0  0  0  0  0  0  0  0  0  0  0
   -7.5405    2.2782    0.0000 H   0  0  0  0  0  0  0  0  0  0  0  0
   -6.3158    2.2782    0.0000 H   0  0  0  0  0  0  0  0  0  0  0  0
   -5.5425    0.0000    0.0000 C   0  0  0  0  0  0  0  0  0  0  0  0
   -4.9302   -1.4782    0.0000 H   0  0  0  0  0  0  0  0  0  0  0  0
   -6.1548   -1.4782    0.0000 H   0  0  0  0  0  0  0  0  0  0  0  0
   -4.1568    0.8000    0.0000 C   0  0  0  0  0  0  0  0  0  0  0  0
   -4.7691    2.2782    0.0000 H   0  0  0  0  0  0  0  0  0  0  0  0
   -3.5445    2.2782    0.0000 H   0  0  0  0  0  0  0  0  0  0  0  0
   -2.7712    0.0000    0.0000 C   0  0  0  0  0  0  0  0  0  0  0  0
   -2.1588   -1.4782    0.0000 H   0  0  0  0  0  0  0  0  0  0  0  0
   -3.3835   -1.4782    0.0000 H   0  0  0  0  0  0  0  0  0  0  0  0
   -1.3855    0.8000    0.0000 C   0  0  0  0  0  0  0  0  0  0  0  0
   -1.9978    2.2782    0.0000 H   0  0  0  0  0  0  0  0  0  0  0  0
   -0.7735    2.2782    0.0000 H   0  0  0  0  0  0  0  0  0  0  0  0
   -0.0002    0.0000    0.0000 C   0  0  0  0  0  0  0  0  0  0  0  0
    0.6121   -1.4782    0.0000 H   0  0  0  0  0  0  0  0  0  0  0  0
   -0.6121   -1.4782    0.0000 H   0  0  0  0  0  0  0  0  0  0  0  0
    1.3855    0.8000    0.0000 C   0  0  0  0  0  0  0  0  0  0  0  0
    0.7735    2.2782    0.0000 H   0  0  0  0  0  0  0  0  0  0  0  0
    1.9978    2.2782    0.0000 H   0  0  0  0  0  0  0  0  0  0  0  0
    2.7712    0.0000    0.0000 C   0  0  0  0  0  0  0  0  0  0  0  0
    3.3835   -1.4782    0.0000 H   0  0  0  0  0  0  0  0  0  0  0  0
    2.1588   -1.4782    0.0000 H   0  0  0  0  0  0  0  0  0  0  0  0
    4.1568    0.8000    0.0000 C   0  0  0  0  0  0  0  0  0  0  0  0
    3.5445    2.2782    0.0000 H   0  0  0  0  0  0  0  0  0  0  0  0
    4.7691    2.2782    0.0000 H   0  0  0  0  0  0  0  0  0  0  0  0
    5.5425    0.0000    0.0000 C   0  0  0  0  0  0  0  0  0  0  0  0
    6.1548   -1.4782    0.0000 H   0  0  0  0  0  0  0  0  0  0  0  0
    4.9302   -1.4782    0.0000 H   0  0  0  0  0  0  0  0  0  0  0  0
    6.9281    0.8000    0.0000 C   0  0  0  0  0  0  0  0  0  0  0  0
    6.3158    2.2782    0.0000 H   0  0  0  0  0  0  0  0  0  0  0  0
    7.5405    2.2782    0.0000 H   0  0  0  0  0  0  0  0  0  0  0  0
    8.3138    0.0000    0.0000 C   0  0  0  0  0  0  0  0  0  0  0  0
    8.9261   -1.4782    0.0000 H   0  0  0  0  0  0  0  0  0  0  0  0
    7.7015   -1.4782    0.0000 H   0  0  0  0  0  0  0  0  0  0  0  0
    9.6995    0.8000    0.0000 C   0  0  0  0  0  0  0  0  0  0  0  0
   11.0851    1.6000    0.0000 H   0  0  0  0  0  0  0  0  0  0  0  0
   11.0851    0.0000    0.0000 H   0  0  0  0  0  0  0  0  0  0  0  0
    9.6995    2.4000    0.0000 H   0  0  0  0  0  0  0  0  0  0  0  0
   -9.6995    0.8000    0.0000 O   0  0  0  0  0  0  0  0  0  0  0  0
  -11.0851    0.0000    0.0000 H   0  0  0  0  0  0  0  0  0  0  0  0
  1  2  1  0  0  0  0
  1  3  1  0  0  0  0
  1  4  1  0  0  0  0
  4  5  1  0  0  0  0
  4  6  1  0  0  0  0
  4  7  1  0  0  0  0
  7  8  1  0  0  0  0
  7  9  1  0  0  0  0
  7 10  1  0  0  0  0
 10 11  1  0  0  0  0
 10 12  1  0  0  0  0
 10 13  1  0  0  0  0
 13 14  1  0  0  0  0
 13 15  1  0  0  0  0
 13 16  1  0  0  0  0
 16 17  1  0  0  0  0
 16 18  1  0  0  0  0
 16 19  1  0  0  0  0
 19 20  1  0  0  0  0
 19 21  1  0  0  0  0
 19 22  1  0  0  0  0
 22 23  1  0  0  0  0
 22 24  1  0  0  0  0
 22 25  1  0  0  0  0
 25 26  1  0  0  0  0
 25 27  1  0  0  0  0
 25 28  1  0  0  0  0
 28 29  1  0  0  0  0
 28 30  1  0  0  0  0
 28 31  1  0  0  0  0
 31 32  1  0  0  0  0
 31 33  1  0  0  0  0
 31 34  1  0  0  0  0
 34 35  1  0  0  0  0
 34 36  1  0  0  0  0
 34 37  1  0  0  0  0
 37 38  1  0  0  0  0
 37 39  1  0  0  0  0
 37 40  1  0  0  0  0
 40 41  1  0  0  0  0
 40 42  1  0  0  0  0
 40 43  1  0  0  0  0
  1 44  1  0  0  0  0
 44 45  1  0  0  0  0
M  END
> <ChemID>
100895

> <source_casrn>
112-72-1

> <CAS>
112-72-1

> <SMILES>
CCCCCCCCCCCCCCO

> <NAME>
1-TETRADECANOL

> <preferred_name>
1-Tetradecanol

> <iupac>
tetradecan-1-ol

> <MPID>
25527

> <dsstox_substance_id>
DTXSID9026926

> <Canonical_QSARr>
CCCCCCCCCCCCCCO

> <InChI_Code_QSARr>
InChI=1S/C14H30O/c1-2-3-4-5-6-7-8-9-10-11-12-13-14-15/h15H,2-14H2,1H3

> <InChI Key_QSARr>
HLZKNKRTKFSKGZ-UHFFFAOYSA-N

> <Salt_Solvent>
?

> <LogVP>
-3.9586

$$$$
100899
  -INDIGO-08031723152D

 54 53  0  0  0  0  0  0  0  0999 V2000
   12.4709   -0.8000    0.0000 C   0  0  0  0  0  0  0  0  0  0  0  0
   13.8564    0.0000    0.0000 H   0  0  0  0  0  0  0  0  0  0  0  0
   12.4709   -2.4000    0.0000 H   0  0  0  0  0  0  0  0  0  0  0  0
   11.0853    0.0000    0.0000 C   0  0  0  0  0  0  0  0  0  0  0  0
   11.0853    1.6000    0.0000 H   0  0  0  0  0  0  0  0  0  0  0  0
    9.6993   -0.8000    0.0000 C   0  0  0  0  0  0  0  0  0  0  0  0
    9.0871   -2.2782    0.0000 H   0  0  0  0  0  0  0  0  0  0  0  0
   10.3120   -2.2782    0.0000 H   0  0  0  0  0  0  0  0  0  0  0  0
    8.3138    0.0000    0.0000 C   0  0  0  0  0  0  0  0  0  0  0  0
    8.9260    1.4782    0.0000 H   0  0  0  0  0  0  0  0  0  0  0  0
    7.7015    1.4782    0.0000 H   0  0  0  0  0  0  0  0  0  0  0  0
    6.9282   -0.8000    0.0000 C   0  0  0  0  0  0  0  0  0  0  0  0
    6.3160   -2.2782    0.0000 H   0  0  0  0  0  0  0  0  0  0  0  0
    7.5405   -2.2782    0.0000 H   0  0  0  0  0  0  0  0  0  0  0  0
    5.5427    0.0000    0.0000 C   0  0  0  0  0  0  0  0  0  0  0  0
    6.1549    1.4782    0.0000 H   0  0  0  0  0  0  0  0  0  0  0  0
    4.9304    1.4782    0.0000 H   0  0  0  0  0  0  0  0  0  0  0  0
    4.1571   -0.8000    0.0000 C   0  0  0  0  0  0  0  0  0  0  0  0
    3.5445   -2.2782    0.0000 H   0  0  0  0  0  0  0  0  0  0  0  0
    4.7693   -2.2782    0.0000 H   0  0  0  0  0  0  0  0  0  0  0  0
    2.7712    0.0000    0.0000 C   0  0  0  0  0  0  0  0  0  0  0  0
    3.3834    1.4782    0.0000 H   0  0  0  0  0  0  0  0  0  0  0  0
    2.1589    1.4782    0.0000 H   0  0  0  0  0  0  0  0  0  0  0  0
    1.3856   -0.8000    0.0000 C   0  0  0  0  0  0  0  0  0  0  0  0
    0.7734   -2.2782    0.0000 H   0  0  0  0  0  0  0  0  0  0  0  0
    1.9978   -2.2782    0.0000 H   0  0  0  0  0  0  0  0  0  0  0  0
    0.0000    0.0000    0.0000 C   0  0  0  0  0  0  0  0  0  0  0  0
    0.6123    1.4782    0.0000 H   0  0  0  0  0  0  0  0  0  0  0  0
   -0.6122    1.4782    0.0000 H   0  0  0  0  0  0  0  0  0  0  0  0
   -1.3855   -0.8000    0.0000 C   0  0  0  0  0  0  0  0  0  0  0  0
   -1.9977   -2.2782    0.0000 H   0  0  0  0  0  0  0  0  0  0  0  0
   -0.7733   -2.2782    0.0000 H   0  0  0  0  0  0  0  0  0  0  0  0
   -2.7715    0.0000    0.0000 C   0  0  0  0  0  0  0  0  0  0  0  0
   -2.1588    1.4782    0.0000 H   0  0  0  0  0  0  0  0  0  0  0  0
   -3.3837    1.4782    0.0000 H   0  0  0  0  0  0  0  0  0  0  0  0
   -4.1570   -0.8000    0.0000 C   0  0  0  0  0  0  0  0  0  0  0  0
   -4.7693   -2.2782    0.0000 H   0  0  0  0  0  0  0  0  0  0  0  0
   -3.5448   -2.2782    0.0000 H   0  0  0  0  0  0  0  0  0  0  0  0
   -5.5426    0.0000    0.0000 C   0  0  0  0  0  0  0  0  0  0  0  0
   -4.9304    1.4782    0.0000 H   0  0  0  0  0  0  0  0  0  0  0  0
   -6.1548    1.4782    0.0000 H   0  0  0  0  0  0  0  0  0  0  0  0
   -6.9281   -0.8000    0.0000 C   0  0  0  0  0  0  0  0  0  0  0  0
   -7.5404   -2.2782    0.0000 H   0  0  0  0  0  0  0  0  0  0  0  0
   -6.3159   -2.2782    0.0000 H   0  0  0  0  0  0  0  0  0  0  0  0
   -8.3137    0.0000    0.0000 C   0  0  0  0  0  0  0  0  0  0  0  0
   -7.7015    1.4782    0.0000 H   0  0  0  0  0  0  0  0  0  0  0  0
   -8.9263    1.4782    0.0000 H   0  0  0  0  0  0  0  0  0  0  0  0
   -9.6997   -0.8000    0.0000 C   0  0  0  0  0  0  0  0  0  0  0  0
  -10.3119   -2.2782    0.0000 H   0  0  0  0  0  0  0  0  0  0  0  0
   -9.0870   -2.2782    0.0000 H   0  0  0  0  0  0  0  0  0  0  0  0
  -11.0852    0.0000    0.0000 C   0  0  0  0  0  0  0  0  0  0  0  0
  -12.4708    0.8000    0.0000 H   0  0  0  0  0  0  0  0  0  0  0  0
  -12.4708   -0.8000    0.0000 H   0  0  0  0  0  0  0  0  0  0  0  0
  -11.0852    1.6000    0.0000 H   0  0  0  0  0  0  0  0  0  0  0  0
  1  2  1  0  0  0  0
  1  3  1  0  0  0  0
  1  4  2  0  0  0  0
  4  5  1  0  0  0  0
  4  6  1  0  0  0  0
  6  7  1  0  0  0  0
  6  8  1  0  0  0  0
  6  9  1  0  0  0  0
  9 10  1  0  0  0  0
  9 11  1  0  0  0  0
  9 12  1  0  0  0  0
 12 13  1  0  0  0  0
 12 14  1  0  0  0  0
 12 15  1  0  0  0  0
 15 16  1  0  0  0  0
 15 17  1  0  0  0  0
 15 18  1  0  0  0  0
 18 19  1  0  0  0  0
 18 20  1  0  0  0  0
 18 21  1  0  0  0  0
 21 22  1  0  0  0  0
 21 23  1  0  0  0  0
 21 24  1  0  0  0  0
 24 25  1  0  0  0  0
 24 26  1  0  0  0  0
 24 27  1  0  0  0  0
 27 28  1  0  0  0  0
 27 29  1  0  0  0  0
 27 30  1  0  0  0  0
 30 31  1  0  0  0  0
 30 32  1  0  0  0  0
 30 33  1  0  0  0  0
 33 34  1  0  0  0  0
 33 35  1  0  0  0  0
 33 36  1  0  0  0  0
 36 37  1  0  0  0  0
 36 38  1  0  0  0  0
 36 39  1  0  0  0  0
 39 40  1  0  0  0  0
 39 41  1  0  0  0  0
 39 42  1  0  0  0  0
 42 43  1  0  0  0  0
 42 44  1  0  0  0  0
 42 45  1  0  0  0  0
 45 46  1  0  0  0  0
 45 47  1  0  0  0  0
 45 48  1  0  0  0  0
 48 49  1  0  0  0  0
 48 50  1  0  0  0  0
 48 51  1  0  0  0  0
 51 52  1  0  0  0  0
 51 53  1  0  0  0  0
 51 54  1  0  0  0  0
M  END
> <ChemID>
100899

> <source_casrn>
112-88-9

> <CAS>
112-88-9

> <SMILES>
CCCCCCCCCCCCCCCCC=C

> <NAME>
1-OCTADECENE

> <preferred_name>
1-Octadecene

> <iupac>
octadec-1-ene

> <MPID>
25531

> <dsstox_substance_id>
DTXSID3026932

> <Canonical_QSARr>
CCCCCCCCCCCCCCCCC=C

> <InChI_Code_QSARr>
InChI=1S/C18H36/c1-3-5-7-9-11-13-15-17-18-16-14-12-10-8-6-4-2/h3H,1,4-18H2,2H3

> <InChI Key_QSARr>
CCCMONHAUSKTEQ-UHFFFAOYSA-N

> <Salt_Solvent>
?

> <LogVP>
-4.1707

$$$$
100903
  -INDIGO-08031723152D

 18 17  0  0  0  0  0  0  0  0999 V2000
    0.0001    0.0000    0.0000 C   0  0  0  0  0  0  0  0  0  0  0  0
    0.8000   -1.3856    0.0000 O   0  0  0  0  0  0  0  0  0  0  0  0
    0.0001   -2.7713    0.0000 H   0  0  0  0  0  0  0  0  0  0  0  0
   -1.3856   -0.8000    0.0000 C   0  0  0  0  0  0  0  0  0  0  0  0
   -1.3856   -2.4000    0.0000 H   0  0  0  0  0  0  0  0  0  0  0  0
   -2.7712    0.0000    0.0000 C   0  0  0  0  0  0  0  0  0  0  0  0
   -4.1569   -0.8000    0.0000 H   0  0  0  0  0  0  0  0  0  0  0  0
   -2.7712    1.6000    0.0000 Cl  0  0  0  0  0  0  0  0  0  0  0  0
   -0.8000    1.3856    0.0000 C   0  0  0  0  0  0  0  0  0  0  0  0
   -1.6000    2.7713    0.0000 C   0  0  0  0  0  0  0  0  0  0  0  0
   -2.4000    4.1569    0.0000 H   0  0  0  0  0  0  0  0  0  0  0  0
    1.3856    0.8000    0.0000 C   0  0  0  0  0  0  0  0  0  0  0  0
    0.7734    2.2782    0.0000 H   0  0  0  0  0  0  0  0  0  0  0  0
    1.9979    2.2782    0.0000 H   0  0  0  0  0  0  0  0  0  0  0  0
    2.7712    0.0000    0.0000 C   0  0  0  0  0  0  0  0  0  0  0  0
    4.1569   -0.8000    0.0000 H   0  0  0  0  0  0  0  0  0  0  0  0
    4.1569    0.8000    0.0000 H   0  0  0  0  0  0  0  0  0  0  0  0
    2.7713   -1.6000    0.0000 H   0  0  0  0  0  0  0  0  0  0  0  0
  1  2  1  0  0  0  0
  2  3  1  0  0  0  0
  1  4  1  0  0  0  0
  4  5  1  0  0  0  0
  4  6  2  0  0  0  0
  6  7  1  0  0  0  0
  6  8  1  0  0  0  0
  1  9  1  0  0  0  0
  9 10  3  0  0  0  0
 10 11  1  0  0  0  0
  1 12  1  0  0  0  0
 12 13  1  0  0  0  0
 12 14  1  0  0  0  0
 12 15  1  0  0  0  0
 15 16  1  0  0  0  0
 15 17  1  0  0  0  0
 15 18  1  0  0  0  0
M  END
> <ChemID>
100903

> <source_casrn>
113-18-8

> <CAS>
113-18-8

> <SMILES>
CCC(O)(C=CCl)C#C

> <NAME>
Ethchlorvynol

> <preferred_name>
Ethchlorvynol

> <iupac>
C7H9ClO

> <MPID>
25535

> <dsstox_substance_id>
DTXSID2023010

> <Canonical_QSARr>
CCC(O)(C=CCl)C#C

> <InChI_Code_QSARr>
InChI=1S/C7H9ClO/c1-3-7(9,4-2)5-6-8/h1,5-6,9H,4H2,2H3/b6-5-

> <InChI Key_QSARr>
ZEHYJZXQEQOSON-WAYWQWQTSA-N

> <Salt_Solvent>
?

> <LogVP>
-1.0

$$$$
100908
  -INDIGO-08031723152D

  9  8  0  0  0  0  0  0  0  0999 V2000
   -0.0000    0.0000    0.0000 C   0  0  0  0  0  0  0  0  0  0  0  0
    1.3856    0.8000    0.0000 H   0  0  0  0  0  0  0  0  0  0  0  0
   -0.0000    1.6000    0.0000 H   0  0  0  0  0  0  0  0  0  0  0  0
    1.3856   -0.8000    0.0000 H   0  0  0  0  0  0  0  0  0  0  0  0
   -1.3856   -0.8000    0.0000 O   0  0  0  0  0  0  0  0  0  0  0  0
   -2.7713    0.0000    0.0000 C   0  0  0  0  0  0  0  0  0  0  0  0
   -4.1569    0.8000    0.0000 H   0  0  0  0  0  0  0  0  0  0  0  0
   -4.1569   -0.8000    0.0000 H   0  0  0  0  0  0  0  0  0  0  0  0
   -2.7713    1.6000    0.0000 H   0  0  0  0  0  0  0  0  0  0  0  0
  1  2  1  0  0  0  0
  1  3  1  0  0  0  0
  1  4  1  0  0  0  0
  1  5  1  0  0  0  0
  5  6  1  0  0  0  0
  6  7  1  0  0  0  0
  6  8  1  0  0  0  0
  6  9  1  0  0  0  0
M  END
> <ChemID>
100908

> <source_casrn>
115-10-6

> <CAS>
115-10-6

> <SMILES>
COC

> <NAME>
DIMETHYL ETHER

> <preferred_name>
Dimethyl ether

> <iupac>
C2H6O

> <MPID>
25539

> <dsstox_substance_id>
DTXSID8026937

> <Canonical_QSARr>
COC

> <InChI_Code_QSARr>
InChI=1S/C2H6O/c1-3-2/h1-2H3

> <InChI Key_QSARr>
LCGLNKUTAGEVQW-UHFFFAOYSA-N

> <Salt_Solvent>
?

> <LogVP>
3.6484

$$$$
100912
  -INDIGO-08031723152D

 11 10  0  0  0  0  0  0  0  0999 V2000
    1.3856    0.8000    0.0000 Si  0  0  0  0  0  0  0  0  0  0  0  0
    2.7713    1.6000    0.0000 Cl  0  0  0  0  0  0  0  0  0  0  0  0
    2.7713    0.0000    0.0000 Cl  0  0  0  0  0  0  0  0  0  0  0  0
    1.3856    2.4000    0.0000 Cl  0  0  0  0  0  0  0  0  0  0  0  0
    0.0000    0.0000    0.0000 C   0  0  0  0  0  0  0  0  0  0  0  0
    0.6123   -1.4782    0.0000 H   0  0  0  0  0  0  0  0  0  0  0  0
   -0.6123   -1.4782    0.0000 H   0  0  0  0  0  0  0  0  0  0  0  0
   -1.3856    0.8000    0.0000 C   0  0  0  0  0  0  0  0  0  0  0  0
   -2.7713    1.6000    0.0000 H   0  0  0  0  0  0  0  0  0  0  0  0
   -2.7713    0.0000    0.0000 H   0  0  0  0  0  0  0  0  0  0  0  0
   -1.3856    2.4000    0.0000 H   0  0  0  0  0  0  0  0  0  0  0  0
  1  2  1  0  0  0  0
  1  3  1  0  0  0  0
  1  4  1  0  0  0  0
  1  5  1  0  0  0  0
  5  6  1  0  0  0  0
  5  7  1  0  0  0  0
  5  8  1  0  0  0  0
  8  9  1  0  0  0  0
  8 10  1  0  0  0  0
  8 11  1  0  0  0  0
M  END
> <ChemID>
100912

> <source_casrn>
115-21-9

> <CAS>
115-21-9

> <SMILES>
CC[Si](Cl)(Cl)Cl

> <NAME>
ETHYLTRICHLOROSILANE

> <preferred_name>
Trichloroethylsilane

> <iupac>
trichloro(ethyl)silane

> <MPID>
25543

> <dsstox_substance_id>
DTXSID7026940

> <Canonical_QSARr>
CC[Si](Cl)(Cl)Cl

> <InChI_Code_QSARr>
InChI=1S/C2H5Cl3Si/c1-2-6(3,4)5/h2H2,1H3

> <InChI Key_QSARr>
ZOYFEXPFPVDYIS-UHFFFAOYSA-N

> <Salt_Solvent>
?

> <LogVP>
1.6738

$$$$
100916
  -INDIGO-08031723152D

 25 27  0  0  0  0  0  0  0  0999 V2000
   -2.8827    0.0431    0.0000 O   0  0  0  0  0  0  0  0  0  0  0  0
   -3.2621   -1.5113    0.0000 S   0  0  0  0  0  0  0  0  0  0  0  0
   -4.8271   -1.8439    0.0000 O   0  0  0  0  0  0  0  0  0  0  0  0
   -2.2834   -2.7770    0.0000 O   0  0  0  0  0  0  0  0  0  0  0  0
   -0.6835   -2.8009    0.0000 C   0  0  0  0  0  0  0  0  0  0  0  0
   -1.0628   -4.3553    0.0000 H   0  0  0  0  0  0  0  0  0  0  0  0
    0.4163   -3.9628    0.0000 H   0  0  0  0  0  0  0  0  0  0  0  0
    0.3327   -1.5650    0.0000 C   0  0  0  0  0  0  0  0  0  0  0  0
    0.9395   -3.0456    0.0000 H   0  0  0  0  0  0  0  0  0  0  0  0
   -0.0001    0.0000    0.0000 C   0  0  0  0  0  0  0  0  0  0  0  0
   -0.0478    1.5993    0.0000 H   0  0  0  0  0  0  0  0  0  0  0  0
    1.3856    0.8000    0.0000 C   0  0  0  0  0  0  0  0  0  0  0  0
    2.9769    0.6327    0.0000 C   0  0  0  0  0  0  0  0  0  0  0  0
    4.0475    1.8217    0.0000 Cl  0  0  0  0  0  0  0  0  0  0  0  0
    3.3095   -0.9323    0.0000 C   0  0  0  0  0  0  0  0  0  0  0  0
    4.7712   -1.5831    0.0000 Cl  0  0  0  0  0  0  0  0  0  0  0  0
    1.9239   -1.7323    0.0000 C   0  0  0  0  0  0  0  0  0  0  0  0
    2.2566   -3.2973    0.0000 Cl  0  0  0  0  0  0  0  0  0  0  0  0
    2.5747   -0.2706    0.0000 C   0  0  0  0  0  0  0  0  0  0  0  0
    4.1504   -0.5485    0.0000 Cl  0  0  0  0  0  0  0  0  0  0  0  0
    3.9011    0.6241    0.0000 Cl  0  0  0  0  0  0  0  0  0  0  0  0
    1.0530    2.3650    0.0000 Cl  0  0  0  0  0  0  0  0  0  0  0  0
   -1.4310    0.7157    0.0000 C   0  0  0  0  0  0  0  0  0  0  0  0
   -0.8988    2.2245    0.0000 H   0  0  0  0  0  0  0  0  0  0  0  0
   -2.4098    1.9814    0.0000 H   0  0  0  0  0  0  0  0  0  0  0  0
  1  2  1  0  0  0  0
  2  3  2  0  0  0  0
  2  4  1  0  0  0  0
  4  5  1  0  0  0  0
  5  6  1  0  0  0  0
  5  7  1  0  0  0  0
  5  8  1  0  0  0  0
  8  9  1  0  0  0  0
  8 10  1  0  0  0  0
 10 11  1  0  0  0  0
 10 12  1  0  0  0  0
 12 13  1  0  0  0  0
 13 14  1  0  0  0  0
 13 15  2  0  0  0  0
 15 16  1  0  0  0  0
 15 17  1  0  0  0  0
 17  8  1  0  0  0  0
 17 18  1  0  0  0  0
 17 19  1  0  0  0  0
 19 12  1  0  0  0  0
 19 20  1  0  0  0  0
 19 21  1  0  0  0  0
 12 22  1  0  0  0  0
 10 23  1  0  0  0  0
 23  1  1  0  0  0  0
 23 24  1  0  0  0  0
 23 25  1  0  0  0  0
M  END
> <ChemID>
100916

> <source_casrn>
115-29-7|959-98-8|33213-65-9

> <CAS>
115-29-7|959-98-8|33213-65-9

> <SMILES>
O=S1OCC2C(CO1)C1(Cl)C(Cl)=C(Cl)C2(Cl)C1(Cl)Cl

> <NAME>
ENDOSULFAN, A-ENDOSULFAN, Endosulfan (beta)

> <preferred_name>
Endosulfan

> <iupac>
6,7,8,9,10,10-hexachloro-1,5,5a,6,9,9a-hexahydro-6,9-methano-2,4,3-benzodioxathiepine 3-oxide

> <MPID>
25547|26460|27050

> <dsstox_substance_id>
DTXSID1020560|DTXSID9037539|DTXSID8037540

> <Canonical_QSARr>
O=S1OCC2C(CO1)C1(Cl)C(Cl)=C(Cl)C2(Cl)C1(Cl)Cl

> <InChI_Code_QSARr>
InChI=1S/C9H6Cl6O3S/c10-5-6(11)8(13)4-2-18-19(16)17-1-3(4)7(5,12)9(8,14)15/h3-4H,1-2H2

> <InChI Key_QSARr>
RDYMFSUJUZBWLH-UHFFFAOYSA-N

> <Salt_Solvent>
?

> <LogVP>
-6.168899999999998

$$$$
100918
  -INDIGO-08031723152D

 54 54  0  0  0  0  0  0  0  0999 V2000
   -0.0001    0.0001    0.0000 P   0  0  0  0  0  0  0  0  0  0  0  0
    1.0285    1.2256    0.0000 C   0  0  0  0  0  0  0  0  0  0  0  0
    1.3748    2.7877    0.0000 H   0  0  0  0  0  0  0  0  0  0  0  0
   -0.3907    1.9644    0.0000 H   0  0  0  0  0  0  0  0  0  0  0  0
    2.5320    1.7728    0.0000 C   0  0  0  0  0  0  0  0  0  0  0  0
    3.2708    0.3537    0.0000 H   0  0  0  0  0  0  0  0  0  0  0  0
    4.0580    1.2918    0.0000 H   0  0  0  0  0  0  0  0  0  0  0  0
    2.8098    3.3486    0.0000 C   0  0  0  0  0  0  0  0  0  0  0  0
    2.0709    4.7678    0.0000 H   0  0  0  0  0  0  0  0  0  0  0  0
    1.2838    3.8297    0.0000 H   0  0  0  0  0  0  0  0  0  0  0  0
    4.3133    3.8959    0.0000 C   0  0  0  0  0  0  0  0  0  0  0  0
    5.8168    4.4431    0.0000 H   0  0  0  0  0  0  0  0  0  0  0  0
    4.5912    5.4715    0.0000 H   0  0  0  0  0  0  0  0  0  0  0  0
    5.5390    2.8675    0.0000 H   0  0  0  0  0  0  0  0  0  0  0  0
    1.2258   -1.0285    0.0000 C   0  0  0  0  0  0  0  0  0  0  0  0
    2.8119   -0.8196    0.0000 H   0  0  0  0  0  0  0  0  0  0  0  0
    2.1997    0.2408    0.0000 H   0  0  0  0  0  0  0  0  0  0  0  0
    1.7729   -2.5320    0.0000 C   0  0  0  0  0  0  0  0  0  0  0  0
    0.3537   -3.2709    0.0000 H   0  0  0  0  0  0  0  0  0  0  0  0
    1.2918   -4.0579    0.0000 H   0  0  0  0  0  0  0  0  0  0  0  0
    3.3485   -2.8098    0.0000 C   0  0  0  0  0  0  0  0  0  0  0  0
    4.7679   -2.0710    0.0000 H   0  0  0  0  0  0  0  0  0  0  0  0
    3.8298   -1.2839    0.0000 H   0  0  0  0  0  0  0  0  0  0  0  0
    3.8958   -4.3133    0.0000 C   0  0  0  0  0  0  0  0  0  0  0  0
    4.4431   -5.8168    0.0000 H   0  0  0  0  0  0  0  0  0  0  0  0
    5.4714   -4.5911    0.0000 H   0  0  0  0  0  0  0  0  0  0  0  0
    2.8674   -5.5391    0.0000 H   0  0  0  0  0  0  0  0  0  0  0  0
   -1.2258    1.0285    0.0000 C   0  0  0  0  0  0  0  0  0  0  0  0
   -2.8119    0.8197    0.0000 H   0  0  0  0  0  0  0  0  0  0  0  0
   -2.1997   -0.2409    0.0000 H   0  0  0  0  0  0  0  0  0  0  0  0
   -1.5034    2.6041    0.0000 C   0  0  0  0  0  0  0  0  0  0  0  0
    0.0224    3.0853    0.0000 H   0  0  0  0  0  0  0  0  0  0  0  0
   -0.7647    4.0233    0.0000 H   0  0  0  0  0  0  0  0  0  0  0  0
   -3.0069    3.1513    0.0000 C   0  0  0  0  0  0  0  0  0  0  0  0
   -4.5330    2.6703    0.0000 H   0  0  0  0  0  0  0  0  0  0  0  0
   -3.7458    1.7321    0.0000 H   0  0  0  0  0  0  0  0  0  0  0  0
   -3.2848    4.7271    0.0000 C   0  0  0  0  0  0  0  0  0  0  0  0
   -3.5626    6.3028    0.0000 H   0  0  0  0  0  0  0  0  0  0  0  0
   -4.7883    5.2744    0.0000 H   0  0  0  0  0  0  0  0  0  0  0  0
   -2.0591    5.7556    0.0000 H   0  0  0  0  0  0  0  0  0  0  0  0
   -1.0285   -1.2257    0.0000 C   0  0  0  0  0  0  0  0  0  0  0  0
   -1.0983   -2.8242    0.0000 H   0  0  0  0  0  0  0  0  0  0  0  0
    0.2409   -2.1997    0.0000 H   0  0  0  0  0  0  0  0  0  0  0  0
   -2.5320   -1.7729    0.0000 C   0  0  0  0  0  0  0  0  0  0  0  0
   -3.9175   -0.9729    0.0000 C   0  0  0  0  0  0  0  0  0  0  0  0
   -3.9175    0.6272    0.0000 Cl  0  0  0  0  0  0  0  0  0  0  0  0
   -5.3033   -1.7729    0.0000 C   0  0  0  0  0  0  0  0  0  0  0  0
   -6.6889   -0.9729    0.0000 H   0  0  0  0  0  0  0  0  0  0  0  0
   -5.3033   -3.3729    0.0000 C   0  0  0  0  0  0  0  0  0  0  0  0
   -6.6889   -4.1730    0.0000 Cl  0  0  0  0  0  0  0  0  0  0  0  0
   -3.9175   -4.1730    0.0000 C   0  0  0  0  0  0  0  0  0  0  0  0
   -3.9175   -5.7728    0.0000 H   0  0  0  0  0  0  0  0  0  0  0  0
   -2.5320   -3.3729    0.0000 C   0  0  0  0  0  0  0  0  0  0  0  0
   -1.1464   -4.1730    0.0000 H   0  0  0  0  0  0  0  0  0  0  0  0
  1  2  1  0  0  0  0
  2  3  1  0  0  0  0
  2  4  1  0  0  0  0
  2  5  1  0  0  0  0
  5  6  1  0  0  0  0
  5  7  1  0  0  0  0
  5  8  1  0  0  0  0
  8  9  1  0  0  0  0
  8 10  1  0  0  0  0
  8 11  1  0  0  0  0
 11 12  1  0  0  0  0
 11 13  1  0  0  0  0
 11 14  1  0  0  0  0
  1 15  1  0  0  0  0
 15 16  1  0  0  0  0
 15 17  1  0  0  0  0
 15 18  1  0  0  0  0
 18 19  1  0  0  0  0
 18 20  1  0  0  0  0
 18 21  1  0  0  0  0
 21 22  1  0  0  0  0
 21 23  1  0  0  0  0
 21 24  1  0  0  0  0
 24 25  1  0  0  0  0
 24 26  1  0  0  0  0
 24 27  1  0  0  0  0
  1 28  1  0  0  0  0
 28 29  1  0  0  0  0
 28 30  1  0  0  0  0
 28 31  1  0  0  0  0
 31 32  1  0  0  0  0
 31 33  1  0  0  0  0
 31 34  1  0  0  0  0
 34 35  1  0  0  0  0
 34 36  1  0  0  0  0
 34 37  1  0  0  0  0
 37 38  1  0  0  0  0
 37 39  1  0  0  0  0
 37 40  1  0  0  0  0
  1 41  1  0  0  0  0
 41 42  1  0  0  0  0
 41 43  1  0  0  0  0
 41 44  1  0  0  0  0
 44 45  1  0  0  0  0
 45 46  1  0  0  0  0
 45 47  2  0  0  0  0
 47 48  1  0  0  0  0
 47 49  1  0  0  0  0
 49 50  1  0  0  0  0
 49 51  2  0  0  0  0
 51 52  1  0  0  0  0
 51 53  1  0  0  0  0
 53 44  2  0  0  0  0
 53 54  1  0  0  0  0
M  CHG  1   1   1
M  END
> <ChemID>
100918

> <source_casrn>
115-78-6

> <CAS>
115-78-6

> <SMILES>
[Cl-].CCCC[P+](Cc1ccc(Cl)cc1Cl)(CCCC)CCCC

> <NAME>
CHLORPHONIUM CHLORIDE

> <preferred_name>
Chlorphonium chloride

> <iupac>
tributyl(2,4-dichlorobenzyl)phosphonium chloride

> <MPID>
25549

> <dsstox_substance_id>
DTXSID0041779

> <Canonical_QSARr>
CCCC[P+](Cc1ccc(Cl)cc1Cl)(CCCC)CCCC

> <InChI_Code_QSARr>
InChI=1S/C19H32Cl2P/c1-4-7-12-22(13-8-5-2,14-9-6-3)16-17-10-11-18(20)15-19(17)21/h10-11,15H,4-9,12-14,16H2,1-3H3/q+1

> <InChI Key_QSARr>
OAGIOQZKOZPWKF-UHFFFAOYSA-N

> <Salt_Solvent>
[Cl-]

> <LogVP>
-6.1549

$$$$
100921
  -INDIGO-08031723152D

 35 35  0  0  0  0  0  0  0  0999 V2000
   -6.9283    2.4000    0.0000 S   0  0  0  0  0  0  0  0  0  0  0  0
   -6.9283    4.0000    0.0000 O   0  0  0  0  0  0  0  0  0  0  0  0
   -8.3138    1.6000    0.0000 C   0  0  0  0  0  0  0  0  0  0  0  0
   -9.6995    0.8000    0.0000 H   0  0  0  0  0  0  0  0  0  0  0  0
   -9.6995    2.4000    0.0000 H   0  0  0  0  0  0  0  0  0  0  0  0
   -8.3138    0.0000    0.0000 H   0  0  0  0  0  0  0  0  0  0  0  0
   -5.5426    1.6000    0.0000 C   0  0  0  0  0  0  0  0  0  0  0  0
   -5.5426    0.0000    0.0000 C   0  0  0  0  0  0  0  0  0  0  0  0
   -6.9283   -0.8000    0.0000 H   0  0  0  0  0  0  0  0  0  0  0  0
   -4.1569   -0.8000    0.0000 C   0  0  0  0  0  0  0  0  0  0  0  0
   -4.1569   -2.4000    0.0000 H   0  0  0  0  0  0  0  0  0  0  0  0
   -2.7712    0.0000    0.0000 C   0  0  0  0  0  0  0  0  0  0  0  0
   -1.3857   -0.8000    0.0000 O   0  0  0  0  0  0  0  0  0  0  0  0
   -0.0000    0.0000    0.0000 P   0  0  0  0  0  0  0  0  0  0  0  0
   -0.0000   -1.6000    0.0000 S   0  0  0  0  0  0  0  0  0  0  0  0
    1.3857   -0.8000    0.0000 O   0  0  0  0  0  0  0  0  0  0  0  0
    2.7714    0.0000    0.0000 C   0  0  0  0  0  0  0  0  0  0  0  0
    2.1590    1.4782    0.0000 H   0  0  0  0  0  0  0  0  0  0  0  0
    3.3835    1.4782    0.0000 H   0  0  0  0  0  0  0  0  0  0  0  0
    4.1569   -0.8000    0.0000 C   0  0  0  0  0  0  0  0  0  0  0  0
    5.5426   -1.6000    0.0000 H   0  0  0  0  0  0  0  0  0  0  0  0
    5.5426    0.0000    0.0000 H   0  0  0  0  0  0  0  0  0  0  0  0
    4.1569   -2.4000    0.0000 H   0  0  0  0  0  0  0  0  0  0  0  0
    1.3857    0.8000    0.0000 O   0  0  0  0  0  0  0  0  0  0  0  0
    1.3857    2.4000    0.0000 C   0  0  0  0  0  0  0  0  0  0  0  0
   -0.2007    2.6089    0.0000 H   0  0  0  0  0  0  0  0  0  0  0  0
    0.4116    3.6694    0.0000 H   0  0  0  0  0  0  0  0  0  0  0  0
    2.7714    3.2000    0.0000 C   0  0  0  0  0  0  0  0  0  0  0  0
    4.1569    4.0000    0.0000 H   0  0  0  0  0  0  0  0  0  0  0  0
    2.7714    4.8000    0.0000 H   0  0  0  0  0  0  0  0  0  0  0  0
    4.1569    2.4000    0.0000 H   0  0  0  0  0  0  0  0  0  0  0  0
   -2.7712    1.6000    0.0000 C   0  0  0  0  0  0  0  0  0  0  0  0
   -1.3857    2.4000    0.0000 H   0  0  0  0  0  0  0  0  0  0  0  0
   -4.1569    2.4000    0.0000 C   0  0  0  0  0  0  0  0  0  0  0  0
   -4.1569    4.0000    0.0000 H   0  0  0  0  0  0  0  0  0  0  0  0
  1  2  2  0  0  0  0
  1  3  1  0  0  0  0
  3  4  1  0  0  0  0
  3  5  1  0  0  0  0
  3  6  1  0  0  0  0
  1  7  1  0  0  0  0
  7  8  1  0  0  0  0
  8  9  1  0  0  0  0
  8 10  2  0  0  0  0
 10 11  1  0  0  0  0
 10 12  1  0  0  0  0
 12 13  1  0  0  0  0
 13 14  1  0  0  0  0
 14 15  2  0  0  0  0
 14 16  1  0  0  0  0
 16 17  1  0  0  0  0
 17 18  1  0  0  0  0
 17 19  1  0  0  0  0
 17 20  1  0  0  0  0
 20 21  1  0  0  0  0
 20 22  1  0  0  0  0
 20 23  1  0  0  0  0
 14 24  1  0  0  0  0
 24 25  1  0  0  0  0
 25 26  1  0  0  0  0
 25 27  1  0  0  0  0
 25 28  1  0  0  0  0
 28 29  1  0  0  0  0
 28 30  1  0  0  0  0
 28 31  1  0  0  0  0
 12 32  2  0  0  0  0
 32 33  1  0  0  0  0
 32 34  1  0  0  0  0
 34  7  2  0  0  0  0
 34 35  1  0  0  0  0
M  END
> <ChemID>
100921

> <source_casrn>
115-90-2

> <CAS>
115-90-2

> <SMILES>
CS(=O)c1ccc(cc1)OP(=S)(OCC)OCC

> <NAME>
FENSULFOTHION

> <preferred_name>
Fensulfothion

> <iupac>
O,O-diethyl O-[4-(methylsulfinyl)phenyl] phosphorothioate

> <MPID>
25552

> <dsstox_substance_id>
DTXSID6021953

> <Canonical_QSARr>
CS(=O)c1ccc(cc1)OP(=S)(OCC)OCC

> <InChI_Code_QSARr>
InChI=1S/C11H17O4PS2/c1-4-13-16(17,14-5-2)15-10-6-8-11(9-7-10)18(3)12/h6-9H,4-5H2,1-3H3

> <InChI Key_QSARr>
XDNBJTQLKCIJBV-UHFFFAOYSA-N

> <Salt_Solvent>
?

> <LogVP>
-4.301

$$$$
100925
  -INDIGO-08031723152D

 13 12  0  0  0  0  0  0  0  0999 V2000
    0.0000   -1.6000    0.0000 C   0  0  0  0  0  0  0  0  0  0  0  0
    1.3856   -2.4000    0.0000 H   0  0  0  0  0  0  0  0  0  0  0  0
   -1.3856   -2.4000    0.0000 H   0  0  0  0  0  0  0  0  0  0  0  0
    0.0000    0.0000    0.0000 C   0  0  0  0  0  0  0  0  0  0  0  0
   -1.3856    0.8000    0.0000 C   0  0  0  0  0  0  0  0  0  0  0  0
   -2.7713    1.6000    0.0000 H   0  0  0  0  0  0  0  0  0  0  0  0
   -2.7713    0.0000    0.0000 H   0  0  0  0  0  0  0  0  0  0  0  0
   -1.3856    2.4000    0.0000 H   0  0  0  0  0  0  0  0  0  0  0  0
    1.3856    0.8000    0.0000 O   0  0  0  0  0  0  0  0  0  0  0  0
    2.7713   -0.0000    0.0000 C   0  0  0  0  0  0  0  0  0  0  0  0
    4.1569    0.8000    0.0000 H   0  0  0  0  0  0  0  0  0  0  0  0
    4.1569   -0.8000    0.0000 H   0  0  0  0  0  0  0  0  0  0  0  0
    2.7713    1.6000    0.0000 H   0  0  0  0  0  0  0  0  0  0  0  0
  1  2  1  0  0  0  0
  1  3  1  0  0  0  0
  1  4  2  0  0  0  0
  4  5  1  0  0  0  0
  5  6  1  0  0  0  0
  5  7  1  0  0  0  0
  5  8  1  0  0  0  0
  4  9  1  0  0  0  0
  9 10  1  0  0  0  0
 10 11  1  0  0  0  0
 10 12  1  0  0  0  0
 10 13  1  0  0  0  0
M  END
> <ChemID>
100925

> <source_casrn>
116-11-0

> <CAS>
116-11-0

> <SMILES>
COC(C)=C

> <NAME>
ISOPROPENYL METHYL ETHER

> <preferred_name>
2-Methoxyprop-1-ene

> <iupac>
2-methoxyprop-1-ene

> <MPID>
25556

> <dsstox_substance_id>
DTXSID3051591

> <Canonical_QSARr>
COC(C)=C

> <InChI_Code_QSARr>
InChI=1S/C4H8O/c1-4(2)5-3/h1H2,2-3H3

> <InChI Key_QSARr>
YOWQWFMSQCOSBA-UHFFFAOYSA-N

> <Salt_Solvent>
?

> <LogVP>
2.7135

$$$$
100929
  -INDIGO-08031723152D

 17 16  0  0  0  0  0  0  0  0999 V2000
    1.3857    0.8000    0.0000 C   0  0  0  0  0  0  0  0  0  0  0  0
    2.7713    1.6000    0.0000 H   0  0  0  0  0  0  0  0  0  0  0  0
    1.3857    2.4000    0.0000 H   0  0  0  0  0  0  0  0  0  0  0  0
    2.7713    0.0000    0.0000 H   0  0  0  0  0  0  0  0  0  0  0  0
   -0.0000    0.0000    0.0000 C   0  0  0  0  0  0  0  0  0  0  0  0
   -0.8001    1.3856    0.0000 H   0  0  0  0  0  0  0  0  0  0  0  0
   -1.5035   -0.5472    0.0000 C   0  0  0  0  0  0  0  0  0  0  0  0
   -1.1572   -2.1093    0.0000 H   0  0  0  0  0  0  0  0  0  0  0  0
   -2.3631   -1.8967    0.0000 H   0  0  0  0  0  0  0  0  0  0  0  0
   -2.7291    0.4813    0.0000 C   0  0  0  0  0  0  0  0  0  0  0  0
   -3.9548    1.5097    0.0000 H   0  0  0  0  0  0  0  0  0  0  0  0
   -4.2327   -0.0660    0.0000 H   0  0  0  0  0  0  0  0  0  0  0  0
   -2.4514    2.0569    0.0000 H   0  0  0  0  0  0  0  0  0  0  0  0
    0.8000   -1.3856    0.0000 C   0  0  0  0  0  0  0  0  0  0  0  0
    2.4000   -1.3856    0.0000 O   0  0  0  0  0  0  0  0  0  0  0  0
    3.2000   -2.7713    0.0000 H   0  0  0  0  0  0  0  0  0  0  0  0
   -0.0000   -2.7713    0.0000 O   0  0  0  0  0  0  0  0  0  0  0  0
  1  2  1  0  0  0  0
  1  3  1  0  0  0  0
  1  4  1  0  0  0  0
  1  5  1  0  0  0  0
  5  6  1  0  0  0  0
  5  7  1  0  0  0  0
  7  8  1  0  0  0  0
  7  9  1  0  0  0  0
  7 10  1  0  0  0  0
 10 11  1  0  0  0  0
 10 12  1  0  0  0  0
 10 13  1  0  0  0  0
  5 14  1  0  0  0  0
 14 15  1  0  0  0  0
 15 16  1  0  0  0  0
 14 17  2  0  0  0  0
M  END
> <ChemID>
100929

> <source_casrn>
116-53-0

> <CAS>
116-53-0

> <SMILES>
CCC(C)C(O)=O

> <NAME>
BUTANOIC ACID, 2-METHYL-

> <preferred_name>
2-Methylbutanoic acid

> <iupac>
2-methylbutanoic acid

> <MPID>
25560

> <dsstox_substance_id>
DTXSID5021621

> <Canonical_QSARr>
CCC(C)C(O)=O

> <InChI_Code_QSARr>
InChI=1S/C5H10O2/c1-3-4(2)5(6)7/h4H,3H2,1-2H3,(H,6,7)

> <InChI Key_QSARr>
WLAMNBDJUVNPJU-UHFFFAOYSA-N

> <Salt_Solvent>
?

> <LogVP>
-0.3089

$$$$
100933
  -INDIGO-08031723152D

 26 28  0  0  0  0  0  0  0  0999 V2000
    1.3856    2.4000    0.0000 O   0  0  0  0  0  0  0  0  0  0  0  0
    1.3856    0.8000    0.0000 C   0  0  0  0  0  0  0  0  0  0  0  0
    0.0001   -0.0000    0.0000 C   0  0  0  0  0  0  0  0  0  0  0  0
    0.0001   -1.6000    0.0000 C   0  0  0  0  0  0  0  0  0  0  0  0
   -1.3856   -2.4000    0.0000 C   0  0  0  0  0  0  0  0  0  0  0  0
   -1.3856   -4.0000    0.0000 H   0  0  0  0  0  0  0  0  0  0  0  0
   -2.7713   -1.6000    0.0000 C   0  0  0  0  0  0  0  0  0  0  0  0
   -4.1569   -2.4000    0.0000 H   0  0  0  0  0  0  0  0  0  0  0  0
   -2.7713   -0.0000    0.0000 C   0  0  0  0  0  0  0  0  0  0  0  0
   -1.3856    0.8000    0.0000 C   0  0  0  0  0  0  0  0  0  0  0  0
   -1.3856    2.4000    0.0000 H   0  0  0  0  0  0  0  0  0  0  0  0
   -4.1569    0.8000    0.0000 N   0  0  0  0  0  0  0  0  0  0  0  0
   -5.5426   -0.0000    0.0000 H   0  0  0  0  0  0  0  0  0  0  0  0
   -4.1569    2.4000    0.0000 H   0  0  0  0  0  0  0  0  0  0  0  0
    1.3856   -2.4000    0.0000 C   0  0  0  0  0  0  0  0  0  0  0  0
    1.3856   -4.0000    0.0000 O   0  0  0  0  0  0  0  0  0  0  0  0
    2.7713   -1.6000    0.0000 C   0  0  0  0  0  0  0  0  0  0  0  0
    2.7713   -0.0000    0.0000 C   0  0  0  0  0  0  0  0  0  0  0  0
    4.1570    0.8000    0.0000 C   0  0  0  0  0  0  0  0  0  0  0  0
    4.1570    2.4000    0.0000 H   0  0  0  0  0  0  0  0  0  0  0  0
    5.5425   -0.0000    0.0000 C   0  0  0  0  0  0  0  0  0  0  0  0
    6.9282    0.8000    0.0000 H   0  0  0  0  0  0  0  0  0  0  0  0
    5.5425   -1.6000    0.0000 C   0  0  0  0  0  0  0  0  0  0  0  0
    6.9282   -2.4000    0.0000 H   0  0  0  0  0  0  0  0  0  0  0  0
    4.1570   -2.4000    0.0000 C   0  0  0  0  0  0  0  0  0  0  0  0
    4.1570   -4.0000    0.0000 H   0  0  0  0  0  0  0  0  0  0  0  0
  1  2  2  0  0  0  0
  2  3  1  0  0  0  0
  3  4  1  0  0  0  0
  4  5  2  0  0  0  0
  5  6  1  0  0  0  0
  5  7  1  0  0  0  0
  7  8  1  0  0  0  0
  7  9  2  0  0  0  0
  9 10  1  0  0  0  0
 10  3  2  0  0  0  0
 10 11  1  0  0  0  0
  9 12  1  0  0  0  0
 12 13  1  0  0  0  0
 12 14  1  0  0  0  0
  4 15  1  0  0  0  0
 15 16  2  0  0  0  0
 15 17  1  0  0  0  0
 17 18  1  0  0  0  0
 18  2  1  0  0  0  0
 18 19  2  0  0  0  0
 19 20  1  0  0  0  0
 19 21  1  0  0  0  0
 21 22  1  0  0  0  0
 21 23  2  0  0  0  0
 23 24  1  0  0  0  0
 23 25  1  0  0  0  0
 25 17  2  0  0  0  0
 25 26  1  0  0  0  0
M  END
> <ChemID>
100933

> <source_casrn>
117-79-3

> <CAS>
117-79-3

> <SMILES>
Nc1cc2c(cc1)C(=O)c1ccccc1C2=O

> <NAME>
2-AMINOANTHRAQUINONE

> <preferred_name>
2-Aminoanthraquinone

> <iupac>
2-aminoanthracene-9,10-dione

> <MPID>
25564

> <dsstox_substance_id>
DTXSID6020068

> <Canonical_QSARr>
Nc1cc2c(cc1)C(=O)c1ccccc1C2=O

> <InChI_Code_QSARr>
InChI=1S/C14H9NO2/c15-8-5-6-11-12(7-8)14(17)10-4-2-1-3-9(10)13(11)16/h1-7H,15H2

> <InChI Key_QSARr>
XOGPDSATLSAZEK-UHFFFAOYSA-N

> <Salt_Solvent>
?

> <LogVP>
-10.301

$$$$
100937
  -INDIGO-08031723152D

 22 22  0  0  0  0  0  0  0  0999 V2000
    0.0001    1.6000    0.0000 C   0  0  0  0  0  0  0  0  0  0  0  0
    1.3857    2.4000    0.0000 H   0  0  0  0  0  0  0  0  0  0  0  0
   -1.3856    2.4000    0.0000 C   0  0  0  0  0  0  0  0  0  0  0  0
   -1.3856    4.0000    0.0000 H   0  0  0  0  0  0  0  0  0  0  0  0
   -2.7713    1.6000    0.0000 C   0  0  0  0  0  0  0  0  0  0  0  0
   -4.1569    2.4000    0.0000 H   0  0  0  0  0  0  0  0  0  0  0  0
   -2.7713    0.0000    0.0000 C   0  0  0  0  0  0  0  0  0  0  0  0
   -4.1569   -0.8000    0.0000 H   0  0  0  0  0  0  0  0  0  0  0  0
   -1.3856   -0.8000    0.0000 C   0  0  0  0  0  0  0  0  0  0  0  0
   -1.3856   -2.4000    0.0000 O   0  0  0  0  0  0  0  0  0  0  0  0
   -2.7713   -3.2000    0.0000 H   0  0  0  0  0  0  0  0  0  0  0  0
    0.0001    0.0000    0.0000 C   0  0  0  0  0  0  0  0  0  0  0  0
    1.3857   -0.8000    0.0000 C   0  0  0  0  0  0  0  0  0  0  0  0
    1.3857   -2.4000    0.0000 O   0  0  0  0  0  0  0  0  0  0  0  0
    2.7712    0.0000    0.0000 O   0  0  0  0  0  0  0  0  0  0  0  0
    4.1569   -0.8000    0.0000 C   0  0  0  0  0  0  0  0  0  0  0  0
    4.7692   -2.2782    0.0000 H   0  0  0  0  0  0  0  0  0  0  0  0
    3.5446   -2.2782    0.0000 H   0  0  0  0  0  0  0  0  0  0  0  0
    5.5425    0.0000    0.0000 C   0  0  0  0  0  0  0  0  0  0  0  0
    6.9282    0.8000    0.0000 H   0  0  0  0  0  0  0  0  0  0  0  0
    6.9282   -0.8000    0.0000 H   0  0  0  0  0  0  0  0  0  0  0  0
    5.5425    1.6000    0.0000 H   0  0  0  0  0  0  0  0  0  0  0  0
  1  2  1  0  0  0  0
  1  3  1  0  0  0  0
  3  4  1  0  0  0  0
  3  5  2  0  0  0  0
  5  6  1  0  0  0  0
  5  7  1  0  0  0  0
  7  8  1  0  0  0  0
  7  9  2  0  0  0  0
  9 10  1  0  0  0  0
 10 11  1  0  0  0  0
  9 12  1  0  0  0  0
 12  1  2  0  0  0  0
 12 13  1  0  0  0  0
 13 14  2  0  0  0  0
 13 15  1  0  0  0  0
 15 16  1  0  0  0  0
 16 17  1  0  0  0  0
 16 18  1  0  0  0  0
 16 19  1  0  0  0  0
 19 20  1  0  0  0  0
 19 21  1  0  0  0  0
 19 22  1  0  0  0  0
M  END
> <ChemID>
100937

> <source_casrn>
118-61-6

> <CAS>
118-61-6

> <SMILES>
CCOC(=O)c1ccccc1O

> <NAME>
ETHYL 2-HYDROXYBENZOATE

> <preferred_name>
Ethyl salicylate

> <iupac>
ethyl 2-hydroxybenzoate

> <MPID>
25568

> <dsstox_substance_id>
DTXSID1021958

> <Canonical_QSARr>
CCOC(=O)c1ccccc1O

> <InChI_Code_QSARr>
InChI=1S/C9H10O3/c1-2-12-9(11)7-5-3-4-6-8(7)10/h3-6,10H,2H2,1H3

> <InChI Key_QSARr>
GYCKQBWUSACYIF-UHFFFAOYSA-N

> <Salt_Solvent>
?

> <LogVP>
-1.0724

$$$$
100941
  -INDIGO-08031723152D

 21 21  0  0  0  0  0  0  0  0999 V2000
    1.3857    0.8000    0.0000 C   0  0  0  0  0  0  0  0  0  0  0  0
    1.3857    2.4000    0.0000 N   0  0  0  0  0  0  0  0  0  0  0  0
    2.7713    3.2000    0.0000 O   0  0  0  0  0  0  0  0  0  0  0  0
    0.0000    3.2000    0.0000 O   0  0  0  0  0  0  0  0  0  0  0  0
    0.0000   -0.0000    0.0000 C   0  0  0  0  0  0  0  0  0  0  0  0
   -1.3856    0.8000    0.0000 C   0  0  0  0  0  0  0  0  0  0  0  0
   -2.7713    1.6000    0.0000 H   0  0  0  0  0  0  0  0  0  0  0  0
   -1.3857    2.4000    0.0000 H   0  0  0  0  0  0  0  0  0  0  0  0
   -2.7713   -0.0000    0.0000 H   0  0  0  0  0  0  0  0  0  0  0  0
    0.0000   -1.6000    0.0000 C   0  0  0  0  0  0  0  0  0  0  0  0
   -1.3856   -2.4000    0.0000 N   0  0  0  0  0  0  0  0  0  0  0  0
   -1.3856   -4.0000    0.0000 O   0  0  0  0  0  0  0  0  0  0  0  0
   -2.7713   -1.6000    0.0000 O   0  0  0  0  0  0  0  0  0  0  0  0
    1.3857   -2.4000    0.0000 C   0  0  0  0  0  0  0  0  0  0  0  0
    1.3857   -4.0000    0.0000 H   0  0  0  0  0  0  0  0  0  0  0  0
    2.7713   -1.6000    0.0000 C   0  0  0  0  0  0  0  0  0  0  0  0
    4.1570   -2.4000    0.0000 N   0  0  0  0  0  0  0  0  0  0  0  0
    4.1570   -4.0000    0.0000 O   0  0  0  0  0  0  0  0  0  0  0  0
    5.5426   -1.6000    0.0000 O   0  0  0  0  0  0  0  0  0  0  0  0
    2.7713   -0.0000    0.0000 C   0  0  0  0  0  0  0  0  0  0  0  0
    4.1569    0.8000    0.0000 H   0  0  0  0  0  0  0  0  0  0  0  0
  1  2  1  0  0  0  0
  2  3  1  0  0  0  0
  2  4  2  0  0  0  0
  1  5  1  0  0  0  0
  5  6  1  0  0  0  0
  6  7  1  0  0  0  0
  6  8  1  0  0  0  0
  6  9  1  0  0  0  0
  5 10  2  0  0  0  0
 10 11  1  0  0  0  0
 11 12  1  0  0  0  0
 11 13  2  0  0  0  0
 10 14  1  0  0  0  0
 14 15  1  0  0  0  0
 14 16  2  0  0  0  0
 16 17  1  0  0  0  0
 17 18  1  0  0  0  0
 17 19  2  0  0  0  0
 16 20  1  0  0  0  0
 20  1  2  0  0  0  0
 20 21  1  0  0  0  0
M  CHG  6   2   1   3  -1  11   1  12  -1  17   1  18  -1
M  END
> <ChemID>
100941

> <source_casrn>
118-96-7

> <CAS>
118-96-7

> <SMILES>
Cc1c(cc(cc1[N+]([O-])=O)[N+]([O-])=O)[N+]([O-])=O

> <NAME>
2,4,6-TRINITROTOLUENE

> <preferred_name>
2,4,6-Trinitrotoluene

> <iupac>
2-methyl-1,3,5-trinitrobenzene

> <MPID>
25572

> <dsstox_substance_id>
DTXSID7024372

> <Canonical_QSARr>
Cc1c(cc(cc1[N+]([O-])=O)[N+]([O-])=O)[N+]([O-])=O

> <InChI_Code_QSARr>
InChI=1S/C7H5N3O6/c1-4-6(9(13)14)2-5(8(11)12)3-7(4)10(15)16/h2-3H,1H3

> <InChI Key_QSARr>
SPSSULHKWOKEEL-UHFFFAOYSA-N

> <Salt_Solvent>
?

> <LogVP>
-5.0958

$$$$
100945
  -INDIGO-08031723152D

 32 32  0  0  0  0  0  0  0  0999 V2000
    1.5529   -2.3913    0.0000 N   0  0  0  0  0  0  0  0  0  0  0  0
    1.2203   -3.9563    0.0000 C   0  0  0  0  0  0  0  0  0  0  0  0
    2.2908   -5.1453    0.0000 C   0  0  0  0  0  0  0  0  0  0  0  0
    3.3615   -6.3344    0.0000 H   0  0  0  0  0  0  0  0  0  0  0  0
    3.8559   -4.8127    0.0000 H   0  0  0  0  0  0  0  0  0  0  0  0
    1.7964   -6.6670    0.0000 H   0  0  0  0  0  0  0  0  0  0  0  0
   -0.3711   -4.1236    0.0000 C   0  0  0  0  0  0  0  0  0  0  0  0
   -1.1709   -5.5091    0.0000 H   0  0  0  0  0  0  0  0  0  0  0  0
   -1.0219   -2.6618    0.0000 C   0  0  0  0  0  0  0  0  0  0  0  0
   -2.5868   -2.3292    0.0000 O   0  0  0  0  0  0  0  0  0  0  0  0
   -3.6575   -3.5182    0.0000 C   0  0  0  0  0  0  0  0  0  0  0  0
   -3.1630   -5.0399    0.0000 O   0  0  0  0  0  0  0  0  0  0  0  0
   -5.2225   -3.1856    0.0000 N   0  0  0  0  0  0  0  0  0  0  0  0
   -6.2930   -4.3746    0.0000 C   0  0  0  0  0  0  0  0  0  0  0  0
   -7.3637   -5.5637    0.0000 H   0  0  0  0  0  0  0  0  0  0  0  0
   -7.8581   -4.0420    0.0000 H   0  0  0  0  0  0  0  0  0  0  0  0
   -5.7986   -5.8963    0.0000 H   0  0  0  0  0  0  0  0  0  0  0  0
   -5.7169   -1.6639    0.0000 C   0  0  0  0  0  0  0  0  0  0  0  0
   -6.2113   -0.1422    0.0000 H   0  0  0  0  0  0  0  0  0  0  0  0
   -7.2818   -1.3311    0.0000 H   0  0  0  0  0  0  0  0  0  0  0  0
   -4.6463   -0.4748    0.0000 H   0  0  0  0  0  0  0  0  0  0  0  0
    0.1673   -1.5913    0.0000 N   0  0  0  0  0  0  0  0  0  0  0  0
    0.0000    0.0000    0.0000 C   0  0  0  0  0  0  0  0  0  0  0  0
   -1.5912   -0.1673    0.0000 H   0  0  0  0  0  0  0  0  0  0  0  0
   -0.1673    1.5912    0.0000 C   0  0  0  0  0  0  0  0  0  0  0  0
   -0.3344    3.1825    0.0000 H   0  0  0  0  0  0  0  0  0  0  0  0
    1.1272    2.5317    0.0000 H   0  0  0  0  0  0  0  0  0  0  0  0
   -1.6289    2.2421    0.0000 H   0  0  0  0  0  0  0  0  0  0  0  0
    1.5912    0.1673    0.0000 C   0  0  0  0  0  0  0  0  0  0  0  0
    3.1825    0.3346    0.0000 H   0  0  0  0  0  0  0  0  0  0  0  0
    2.2420    1.6289    0.0000 H   0  0  0  0  0  0  0  0  0  0  0  0
    2.5317   -1.1272    0.0000 H   0  0  0  0  0  0  0  0  0  0  0  0
  1  2  2  0  0  0  0
  2  3  1  0  0  0  0
  3  4  1  0  0  0  0
  3  5  1  0  0  0  0
  3  6  1  0  0  0  0
  2  7  1  0  0  0  0
  7  8  1  0  0  0  0
  7  9  2  0  0  0  0
  9 10  1  0  0  0  0
 10 11  1  0  0  0  0
 11 12  2  0  0  0  0
 11 13  1  0  0  0  0
 13 14  1  0  0  0  0
 14 15  1  0  0  0  0
 14 16  1  0  0  0  0
 14 17  1  0  0  0  0
 13 18  1  0  0  0  0
 18 19  1  0  0  0  0
 18 20  1  0  0  0  0
 18 21  1  0  0  0  0
  9 22  1  0  0  0  0
 22  1  1  0  0  0  0
 22 23  1  0  0  0  0
 23 24  1  0  0  0  0
 23 25  1  0  0  0  0
 25 26  1  0  0  0  0
 25 27  1  0  0  0  0
 25 28  1  0  0  0  0
 23 29  1  0  0  0  0
 29 30  1  0  0  0  0
 29 31  1  0  0  0  0
 29 32  1  0  0  0  0
M  END
> <ChemID>
100945

> <source_casrn>
119-38-0

> <CAS>
119-38-0

> <SMILES>
CN(C)C(=O)Oc1cc(C)[n][n]1C(C)C

> <NAME>
ISOLAN

> <preferred_name>
Isolane

> <iupac>
3-methyl-1-(propan-2-yl)-1H-pyrazol-5-yl dimethylcarbamate

> <MPID>
25576

> <dsstox_substance_id>
DTXSID2020765

> <Canonical_QSARr>
CN(C)C(=O)Oc1cc(C)[n][n]1C(C)C

> <InChI_Code_QSARr>
InChI=1S/C10H17N3O2/c1-7(2)13-9(6-8(3)11-13)15-10(14)12(4)5/h6-7H,1-5H3

> <InChI Key_QSARr>
RNNBHZYEKNHLKT-UHFFFAOYSA-N

> <Salt_Solvent>
?

> <LogVP>
-3.0

$$$$
100949
  -INDIGO-08031723152D

 17 18  0  0  0  0  0  0  0  0999 V2000
   -2.7713   -1.6000    0.0000 N   0  0  0  0  0  0  0  0  0  0  0  0
   -1.3856   -2.4000    0.0000 C   0  0  0  0  0  0  0  0  0  0  0  0
   -1.3856   -4.0000    0.0000 H   0  0  0  0  0  0  0  0  0  0  0  0
   -0.0001   -1.6000    0.0000 C   0  0  0  0  0  0  0  0  0  0  0  0
    0.0001   -0.0000    0.0000 C   0  0  0  0  0  0  0  0  0  0  0  0
    1.3856    0.8000    0.0000 C   0  0  0  0  0  0  0  0  0  0  0  0
    1.3856    2.4000    0.0000 H   0  0  0  0  0  0  0  0  0  0  0  0
    2.7713   -0.0000    0.0000 C   0  0  0  0  0  0  0  0  0  0  0  0
    4.1569    0.8000    0.0000 H   0  0  0  0  0  0  0  0  0  0  0  0
    2.7713   -1.6000    0.0000 C   0  0  0  0  0  0  0  0  0  0  0  0
    4.1569   -2.4000    0.0000 H   0  0  0  0  0  0  0  0  0  0  0  0
    1.3856   -2.4000    0.0000 C   0  0  0  0  0  0  0  0  0  0  0  0
    1.3856   -4.0000    0.0000 H   0  0  0  0  0  0  0  0  0  0  0  0
   -1.3856    0.8000    0.0000 C   0  0  0  0  0  0  0  0  0  0  0  0
   -1.3856    2.4000    0.0000 H   0  0  0  0  0  0  0  0  0  0  0  0
   -2.7713   -0.0000    0.0000 C   0  0  0  0  0  0  0  0  0  0  0  0
   -4.1569    0.8000    0.0000 H   0  0  0  0  0  0  0  0  0  0  0  0
  1  2  1  0  0  0  0
  2  3  1  0  0  0  0
  2  4  2  0  0  0  0
  4  5  1  0  0  0  0
  5  6  1  0  0  0  0
  6  7  1  0  0  0  0
  6  8  2  0  0  0  0
  8  9  1  0  0  0  0
  8 10  1  0  0  0  0
 10 11  1  0  0  0  0
 10 12  2  0  0  0  0
 12  4  1  0  0  0  0
 12 13  1  0  0  0  0
  5 14  2  0  0  0  0
 14 15  1  0  0  0  0
 14 16  1  0  0  0  0
 16  1  2  0  0  0  0
 16 17  1  0  0  0  0
M  END
> <ChemID>
100949

> <source_casrn>
119-65-3

> <CAS>
119-65-3

> <SMILES>
c1[n]ccc2ccccc21

> <NAME>
ISOQUINOLINE

> <preferred_name>
Isoquinoline

> <iupac>
isoquinoline

> <MPID>
25580

> <dsstox_substance_id>
DTXSID2047644

> <Canonical_QSARr>
c1[n]ccc2ccccc21

> <InChI_Code_QSARr>
InChI=1S/C9H7N/c1-2-4-9-7-10-6-5-8(9)3-1/h1-7H

> <InChI Key_QSARr>
AWJUIBRHMBBTKR-UHFFFAOYSA-N

> <Salt_Solvent>
?

> <LogVP>
-1.1551

$$$$
100953
  -INDIGO-08031723152D

 22 22  0  0  0  0  0  0  0  0999 V2000
   -2.4001    1.3856    0.0000 Cl  0  0  0  0  0  0  0  0  0  0  0  0
   -3.2001    0.0000    0.0000 C   0  0  0  0  0  0  0  0  0  0  0  0
   -2.4001   -1.3856    0.0000 C   0  0  0  0  0  0  0  0  0  0  0  0
   -0.8000   -1.3856    0.0000 O   0  0  0  0  0  0  0  0  0  0  0  0
   -0.0000    0.0000    0.0000 C   0  0  0  0  0  0  0  0  0  0  0  0
   -1.3857    0.8000    0.0000 H   0  0  0  0  0  0  0  0  0  0  0  0
    1.3856   -0.8000    0.0000 C   0  0  0  0  0  0  0  0  0  0  0  0
    2.7713    0.0000    0.0000 O   0  0  0  0  0  0  0  0  0  0  0  0
    1.3856   -2.4000    0.0000 O   0  0  0  0  0  0  0  0  0  0  0  0
    2.7713   -3.2000    0.0000 H   0  0  0  0  0  0  0  0  0  0  0  0
    0.8000    1.3856    0.0000 C   0  0  0  0  0  0  0  0  0  0  0  0
    1.6000    2.7713    0.0000 H   0  0  0  0  0  0  0  0  0  0  0  0
    2.4000    1.3856    0.0000 H   0  0  0  0  0  0  0  0  0  0  0  0
   -0.0000    2.7713    0.0000 H   0  0  0  0  0  0  0  0  0  0  0  0
   -3.2001   -2.7713    0.0000 C   0  0  0  0  0  0  0  0  0  0  0  0
   -2.4001   -4.1569    0.0000 H   0  0  0  0  0  0  0  0  0  0  0  0
   -4.8000   -2.7713    0.0000 C   0  0  0  0  0  0  0  0  0  0  0  0
   -5.6000   -4.1569    0.0000 H   0  0  0  0  0  0  0  0  0  0  0  0
   -5.6000   -1.3856    0.0000 C   0  0  0  0  0  0  0  0  0  0  0  0
   -7.2000   -1.3856    0.0000 Cl  0  0  0  0  0  0  0  0  0  0  0  0
   -4.8000    0.0000    0.0000 C   0  0  0  0  0  0  0  0  0  0  0  0
   -5.6000    1.3856    0.0000 H   0  0  0  0  0  0  0  0  0  0  0  0
  1  2  1  0  0  0  0
  2  3  1  0  0  0  0
  3  4  1  0  0  0  0
  4  5  1  0  0  0  0
  5  6  1  0  0  0  0
  5  7  1  0  0  0  0
  7  8  2  0  0  0  0
  7  9  1  0  0  0  0
  9 10  1  0  0  0  0
  5 11  1  0  0  0  0
 11 12  1  0  0  0  0
 11 13  1  0  0  0  0
 11 14  1  0  0  0  0
  3 15  2  0  0  0  0
 15 16  1  0  0  0  0
 15 17  1  0  0  0  0
 17 18  1  0  0  0  0
 17 19  2  0  0  0  0
 19 20  1  0  0  0  0
 19 21  1  0  0  0  0
 21  2  2  0  0  0  0
 21 22  1  0  0  0  0
M  END
> <ChemID>
100953

> <source_casrn>
120-36-5|15165-67-0

> <CAS>
120-36-5|15165-67-0

> <SMILES>
CC(Oc1ccc(Cl)cc1Cl)C(O)=O

> <NAME>
DICHLORPROP, Propanoic acid, 2-(2,4-dichlorophenoxy)-, (R)-

> <preferred_name>
Dichlorprop

> <iupac>
2-(2,4-dichlorophenoxy)propanoic acid

> <MPID>
25584|26928

> <dsstox_substance_id>
DTXSID0020440|DTXSID0034851

> <Canonical_QSARr>
CC(Oc1ccc(Cl)cc1Cl)C(O)=O

> <InChI_Code_QSARr>
InChI=1S/C9H8Cl2O3/c1-5(9(12)13)14-8-3-2-6(10)4-7(8)11/h2-5H,1H3,(H,12,13)

> <InChI Key_QSARr>
MZHCENGPTKEIGP-UHFFFAOYSA-N

> <Salt_Solvent>
?

> <LogVP>
-6.7287

$$$$
100957
  -INDIGO-08031723152D

 20 20  0  0  0  0  0  0  0  0999 V2000
    1.3856    0.8000    0.0000 C   0  0  0  0  0  0  0  0  0  0  0  0
    1.9979    2.2782    0.0000 H   0  0  0  0  0  0  0  0  0  0  0  0
    0.7733    2.2782    0.0000 H   0  0  0  0  0  0  0  0  0  0  0  0
   -0.0001   -0.0000    0.0000 C   0  0  0  0  0  0  0  0  0  0  0  0
   -0.6122   -1.4782    0.0000 H   0  0  0  0  0  0  0  0  0  0  0  0
    0.6123   -1.4782    0.0000 H   0  0  0  0  0  0  0  0  0  0  0  0
   -1.3856    0.8000    0.0000 O   0  0  0  0  0  0  0  0  0  0  0  0
   -2.7712   -0.0000    0.0000 C   0  0  0  0  0  0  0  0  0  0  0  0
   -2.7712   -1.6000    0.0000 C   0  0  0  0  0  0  0  0  0  0  0  0
   -1.3856   -2.4000    0.0000 Cl  0  0  0  0  0  0  0  0  0  0  0  0
   -4.1569   -2.4000    0.0000 C   0  0  0  0  0  0  0  0  0  0  0  0
   -4.1569   -4.0000    0.0000 H   0  0  0  0  0  0  0  0  0  0  0  0
   -5.5425   -1.6000    0.0000 C   0  0  0  0  0  0  0  0  0  0  0  0
   -6.9282   -2.4000    0.0000 Cl  0  0  0  0  0  0  0  0  0  0  0  0
   -5.5425   -0.0000    0.0000 C   0  0  0  0  0  0  0  0  0  0  0  0
   -6.9282    0.8000    0.0000 H   0  0  0  0  0  0  0  0  0  0  0  0
   -4.1569    0.8000    0.0000 C   0  0  0  0  0  0  0  0  0  0  0  0
   -4.1569    2.4000    0.0000 H   0  0  0  0  0  0  0  0  0  0  0  0
    2.7713   -0.0000    0.0000 O   0  0  0  0  0  0  0  0  0  0  0  0
    4.1569    0.8000    0.0000 H   0  0  0  0  0  0  0  0  0  0  0  0
  1  2  1  0  0  0  0
  1  3  1  0  0  0  0
  1  4  1  0  0  0  0
  4  5  1  0  0  0  0
  4  6  1  0  0  0  0
  4  7  1  0  0  0  0
  7  8  1  0  0  0  0
  8  9  1  0  0  0  0
  9 10  1  0  0  0  0
  9 11  2  0  0  0  0
 11 12  1  0  0  0  0
 11 13  1  0  0  0  0
 13 14  1  0  0  0  0
 13 15  2  0  0  0  0
 15 16  1  0  0  0  0
 15 17  1  0  0  0  0
 17  8  2  0  0  0  0
 17 18  1  0  0  0  0
  1 19  1  0  0  0  0
 19 20  1  0  0  0  0
M  END
> <ChemID>
100957

> <source_casrn>
120-67-2

> <CAS>
NOCAS_870474

> <SMILES>
OCCOc1ccc(Cl)cc1Cl

> <NAME>
2-(2,4-DICHLOROPHENOXY)ETHANOL

> <preferred_name>


> <iupac>


> <MPID>
25588

> <dsstox_substance_id>
DTXSID70870474

> <Canonical_QSARr>
OCCOc1ccc(Cl)cc1Cl

> <InChI_Code_QSARr>
InChI=1S/C8H8Cl2O2/c9-6-1-2-8(7(10)5-6)12-4-3-11/h1-2,5,11H,3-4H2

> <InChI Key_QSARr>
PCCMNBRZMKANQD-UHFFFAOYSA-N

> <Salt_Solvent>
?

> <LogVP>
-3.7009

$$$$
100961
  -INDIGO-08031723152D

 12 12  0  0  0  0  0  0  0  0999 V2000
    0.8000    1.3856    0.0000 Cl  0  0  0  0  0  0  0  0  0  0  0  0
   -0.0000   -0.0000    0.0000 C   0  0  0  0  0  0  0  0  0  0  0  0
    0.8000   -1.3857    0.0000 C   0  0  0  0  0  0  0  0  0  0  0  0
    2.4000   -1.3857    0.0000 Cl  0  0  0  0  0  0  0  0  0  0  0  0
   -0.0000   -2.7713    0.0000 C   0  0  0  0  0  0  0  0  0  0  0  0
    0.8000   -4.1569    0.0000 H   0  0  0  0  0  0  0  0  0  0  0  0
   -1.6000   -2.7713    0.0000 C   0  0  0  0  0  0  0  0  0  0  0  0
   -2.4000   -4.1569    0.0000 Cl  0  0  0  0  0  0  0  0  0  0  0  0
   -2.4000   -1.3856    0.0000 C   0  0  0  0  0  0  0  0  0  0  0  0
   -4.0000   -1.3856    0.0000 H   0  0  0  0  0  0  0  0  0  0  0  0
   -1.6000   -0.0000    0.0000 C   0  0  0  0  0  0  0  0  0  0  0  0
   -2.4000    1.3856    0.0000 H   0  0  0  0  0  0  0  0  0  0  0  0
  1  2  1  0  0  0  0
  2  3  1  0  0  0  0
  3  4  1  0  0  0  0
  3  5  2  0  0  0  0
  5  6  1  0  0  0  0
  5  7  1  0  0  0  0
  7  8  1  0  0  0  0
  7  9  2  0  0  0  0
  9 10  1  0  0  0  0
  9 11  1  0  0  0  0
 11  2  2  0  0  0  0
 11 12  1  0  0  0  0
M  END
> <ChemID>
100961

> <source_casrn>
120-82-1

> <CAS>
120-82-1

> <SMILES>
Clc1cc(Cl)c(Cl)cc1

> <NAME>
1,2,4-TRICHLOROBENZENE

> <preferred_name>
1,2,4-Trichlorobenzene

> <iupac>
C6H3Cl3

> <MPID>
25592

> <dsstox_substance_id>
DTXSID0021965

> <Canonical_QSARr>
Clc1cc(Cl)c(Cl)cc1

> <InChI_Code_QSARr>
InChI=1S/C6H3Cl3/c7-4-1-2-5(8)6(9)3-4/h1-3H

> <InChI Key_QSARr>
PBKONEOXTCPAFI-UHFFFAOYSA-N

> <Salt_Solvent>
?

> <LogVP>
-0.3372

$$$$
100965
  -INDIGO-08031723152D

 19 19  0  0  0  0  0  0  0  0999 V2000
    1.3857   -0.8000    0.0000 C   0  0  0  0  0  0  0  0  0  0  0  0
    2.7713   -1.6000    0.0000 H   0  0  0  0  0  0  0  0  0  0  0  0
    1.3856   -2.4000    0.0000 H   0  0  0  0  0  0  0  0  0  0  0  0
    2.7713    0.0000    0.0000 H   0  0  0  0  0  0  0  0  0  0  0  0
    0.0000    0.0000    0.0000 C   0  0  0  0  0  0  0  0  0  0  0  0
    0.0000    1.6000    0.0000 C   0  0  0  0  0  0  0  0  0  0  0  0
    1.3857    2.4000    0.0000 N   0  0  0  0  0  0  0  0  0  0  0  0
    1.3857    4.0000    0.0000 O   0  0  0  0  0  0  0  0  0  0  0  0
    2.7713    1.6000    0.0000 O   0  0  0  0  0  0  0  0  0  0  0  0
   -1.3856    2.4000    0.0000 C   0  0  0  0  0  0  0  0  0  0  0  0
   -1.3856    4.0000    0.0000 H   0  0  0  0  0  0  0  0  0  0  0  0
   -2.7713    1.6000    0.0000 C   0  0  0  0  0  0  0  0  0  0  0  0
   -4.1570    2.4000    0.0000 N   0  0  0  0  0  0  0  0  0  0  0  0
   -5.5426    1.6000    0.0000 O   0  0  0  0  0  0  0  0  0  0  0  0
   -4.1570    4.0000    0.0000 O   0  0  0  0  0  0  0  0  0  0  0  0
   -2.7713    0.0000    0.0000 C   0  0  0  0  0  0  0  0  0  0  0  0
   -4.1570   -0.8000    0.0000 H   0  0  0  0  0  0  0  0  0  0  0  0
   -1.3856   -0.8000    0.0000 C   0  0  0  0  0  0  0  0  0  0  0  0
   -1.3856   -2.4000    0.0000 H   0  0  0  0  0  0  0  0  0  0  0  0
  1  2  1  0  0  0  0
  1  3  1  0  0  0  0
  1  4  1  0  0  0  0
  1  5  1  0  0  0  0
  5  6  1  0  0  0  0
  6  7  1  0  0  0  0
  7  8  2  0  0  0  0
  7  9  1  0  0  0  0
  6 10  2  0  0  0  0
 10 11  1  0  0  0  0
 10 12  1  0  0  0  0
 12 13  1  0  0  0  0
 13 14  2  0  0  0  0
 13 15  1  0  0  0  0
 12 16  2  0  0  0  0
 16 17  1  0  0  0  0
 16 18  1  0  0  0  0
 18  5  2  0  0  0  0
 18 19  1  0  0  0  0
M  CHG  4   7   1   9  -1  13   1  15  -1
M  END
> <ChemID>
100965

> <source_casrn>
121-14-2

> <CAS>
121-14-2

> <SMILES>
Cc1ccc(cc1[N+]([O-])=O)[N+]([O-])=O

> <NAME>
2,4-DINITROTOLUENE

> <preferred_name>
2,4-Dinitrotoluene

> <iupac>
1-methyl-2,4-dinitrobenzene

> <MPID>
25596

> <dsstox_substance_id>
DTXSID0020529

> <Canonical_QSARr>
Cc1ccc(cc1[N+]([O-])=O)[N+]([O-])=O

> <InChI_Code_QSARr>
InChI=1S/C7H6N2O4/c1-5-2-3-6(8(10)11)4-7(5)9(12)13/h2-4H,1H3

> <InChI Key_QSARr>
RMBFBMJGBANMMK-UHFFFAOYSA-N

> <Salt_Solvent>
?

> <LogVP>
-3.8327

$$$$
100969
  -INDIGO-08031723152D

 19 19  0  0  0  0  0  0  0  0999 V2000
    2.7713    0.0001    0.0000 C   0  0  0  0  0  0  0  0  0  0  0  0
    4.1570    0.8000    0.0000 C   0  0  0  0  0  0  0  0  0  0  0  0
    5.5426   -0.0001    0.0000 H   0  0  0  0  0  0  0  0  0  0  0  0
    4.1570    2.4000    0.0000 O   0  0  0  0  0  0  0  0  0  0  0  0
    1.3857    0.8000    0.0000 C   0  0  0  0  0  0  0  0  0  0  0  0
    1.3856    2.4000    0.0000 H   0  0  0  0  0  0  0  0  0  0  0  0
    0.0000    0.0001    0.0000 C   0  0  0  0  0  0  0  0  0  0  0  0
   -1.3857    0.8000    0.0000 O   0  0  0  0  0  0  0  0  0  0  0  0
   -1.3856    2.4000    0.0000 C   0  0  0  0  0  0  0  0  0  0  0  0
   -2.7713    3.2001    0.0000 H   0  0  0  0  0  0  0  0  0  0  0  0
   -1.3856    4.0000    0.0000 H   0  0  0  0  0  0  0  0  0  0  0  0
   -2.7713    1.6001    0.0000 H   0  0  0  0  0  0  0  0  0  0  0  0
    0.0000   -1.5999    0.0000 C   0  0  0  0  0  0  0  0  0  0  0  0
   -1.3856   -2.4000    0.0000 O   0  0  0  0  0  0  0  0  0  0  0  0
   -1.3856   -4.0000    0.0000 H   0  0  0  0  0  0  0  0  0  0  0  0
    1.3857   -2.4000    0.0000 C   0  0  0  0  0  0  0  0  0  0  0  0
    1.3857   -4.0000    0.0000 H   0  0  0  0  0  0  0  0  0  0  0  0
    2.7713   -1.5999    0.0000 C   0  0  0  0  0  0  0  0  0  0  0  0
    4.1570   -2.4000    0.0000 H   0  0  0  0  0  0  0  0  0  0  0  0
  1  2  1  0  0  0  0
  2  3  1  0  0  0  0
  2  4  2  0  0  0  0
  1  5  1  0  0  0  0
  5  6  1  0  0  0  0
  5  7  2  0  0  0  0
  7  8  1  0  0  0  0
  8  9  1  0  0  0  0
  9 10  1  0  0  0  0
  9 11  1  0  0  0  0
  9 12  1  0  0  0  0
  7 13  1  0  0  0  0
 13 14  1  0  0  0  0
 14 15  1  0  0  0  0
 13 16  2  0  0  0  0
 16 17  1  0  0  0  0
 16 18  1  0  0  0  0
 18  1  2  0  0  0  0
 18 19  1  0  0  0  0
M  END
> <ChemID>
100969

> <source_casrn>
121-33-5

> <CAS>
121-33-5

> <SMILES>
COc1cc(C=O)ccc1O

> <NAME>
VANILLIN

> <preferred_name>
4-Hydroxy-3-methoxybenzaldehyde

> <iupac>
4-hydroxy-3-methoxybenzaldehyde

> <MPID>
25600

> <dsstox_substance_id>
DTXSID0021969

> <Canonical_QSARr>
COc1cc(C=O)ccc1O

> <InChI_Code_QSARr>
InChI=1S/C8H8O3/c1-11-8-4-6(5-9)2-3-7(8)10/h2-5,10H,1H3

> <InChI Key_QSARr>
MWOOGOJBHIARFG-UHFFFAOYSA-N

> <Salt_Solvent>
?

> <LogVP>
-3.9274

$$$$
100973
  -INDIGO-08031723152D

 14 14  0  0  0  0  0  0  0  0999 V2000
   -3.2000    2.7713    0.0000 Cl  0  0  0  0  0  0  0  0  0  0  0  0
   -2.4000    1.3856    0.0000 C   0  0  0  0  0  0  0  0  0  0  0  0
   -0.8000    1.3856    0.0000 C   0  0  0  0  0  0  0  0  0  0  0  0
    0.0000    2.7713    0.0000 H   0  0  0  0  0  0  0  0  0  0  0  0
    0.0000    0.0000    0.0000 C   0  0  0  0  0  0  0  0  0  0  0  0
    1.6000    0.0000    0.0000 N   0  0  0  0  0  0  0  0  0  0  0  0
    2.4000   -1.3856    0.0000 O   0  0  0  0  0  0  0  0  0  0  0  0
    2.4000    1.3856    0.0000 O   0  0  0  0  0  0  0  0  0  0  0  0
   -0.8000   -1.3856    0.0000 C   0  0  0  0  0  0  0  0  0  0  0  0
    0.0000   -2.7713    0.0000 H   0  0  0  0  0  0  0  0  0  0  0  0
   -2.4000   -1.3856    0.0000 C   0  0  0  0  0  0  0  0  0  0  0  0
   -3.2000   -2.7713    0.0000 H   0  0  0  0  0  0  0  0  0  0  0  0
   -3.2000   -0.0000    0.0000 C   0  0  0  0  0  0  0  0  0  0  0  0
   -4.8000    0.0000    0.0000 H   0  0  0  0  0  0  0  0  0  0  0  0
  1  2  1  0  0  0  0
  2  3  1  0  0  0  0
  3  4  1  0  0  0  0
  3  5  2  0  0  0  0
  5  6  1  0  0  0  0
  6  7  2  0  0  0  0
  6  8  1  0  0  0  0
  5  9  1  0  0  0  0
  9 10  1  0  0  0  0
  9 11  2  0  0  0  0
 11 12  1  0  0  0  0
 11 13  1  0  0  0  0
 13  2  2  0  0  0  0
 13 14  1  0  0  0  0
M  CHG  2   6   1   8  -1
M  END
> <ChemID>
100973

> <source_casrn>
121-73-3

> <CAS>
121-73-3

> <SMILES>
[O-][N+](=O)c1cccc(Cl)c1

> <NAME>
3-CHLORO-NITROBENZENE

> <preferred_name>
1-Chloro-3-nitrobenzene

> <iupac>
1-chloro-3-nitrobenzene

> <MPID>
25604

> <dsstox_substance_id>
DTXSID4021971

> <Canonical_QSARr>
[O-][N+](=O)c1cccc(Cl)c1

> <InChI_Code_QSARr>
InChI=1S/C6H4ClNO2/c7-5-2-1-3-6(4-5)8(9)10/h1-4H

> <InChI Key_QSARr>
KMAQZIILEGKYQZ-UHFFFAOYSA-N

> <Salt_Solvent>
?

> <LogVP>
-1.0132

$$$$
100977
  -INDIGO-08031723152D

 25 25  0  0  0  0  0  0  0  0999 V2000
    4.1568    4.0000    0.0000 Cl  0  0  0  0  0  0  0  0  0  0  0  0
    4.1570    2.4000    0.0000 C   0  0  0  0  0  0  0  0  0  0  0  0
    5.5426    1.6000    0.0000 N   0  0  0  0  0  0  0  0  0  0  0  0
    5.5426    0.0000    0.0000 C   0  0  0  0  0  0  0  0  0  0  0  0
    6.9283   -0.8000    0.0000 N   0  0  0  0  0  0  0  0  0  0  0  0
    6.9283   -2.4000    0.0000 H   0  0  0  0  0  0  0  0  0  0  0  0
    8.3138    0.0000    0.0000 C   0  0  0  0  0  0  0  0  0  0  0  0
    8.9262    1.4782    0.0000 H   0  0  0  0  0  0  0  0  0  0  0  0
    7.7015    1.4782    0.0000 H   0  0  0  0  0  0  0  0  0  0  0  0
    9.6996   -0.8000    0.0000 C   0  0  0  0  0  0  0  0  0  0  0  0
   11.0851   -1.6000    0.0000 H   0  0  0  0  0  0  0  0  0  0  0  0
   11.0851    0.0000    0.0000 H   0  0  0  0  0  0  0  0  0  0  0  0
    9.6996   -2.4000    0.0000 H   0  0  0  0  0  0  0  0  0  0  0  0
    4.1570   -0.8000    0.0000 N   0  0  0  0  0  0  0  0  0  0  0  0
    2.7713    0.0000    0.0000 C   0  0  0  0  0  0  0  0  0  0  0  0
    1.3857   -0.8000    0.0000 N   0  0  0  0  0  0  0  0  0  0  0  0
    1.3857   -2.4000    0.0000 H   0  0  0  0  0  0  0  0  0  0  0  0
    0.0000    0.0000    0.0000 C   0  0  0  0  0  0  0  0  0  0  0  0
    0.6123    1.4782    0.0000 H   0  0  0  0  0  0  0  0  0  0  0  0
   -0.6123    1.4782    0.0000 H   0  0  0  0  0  0  0  0  0  0  0  0
   -1.3855   -0.8000    0.0000 C   0  0  0  0  0  0  0  0  0  0  0  0
   -2.7713   -1.6000    0.0000 H   0  0  0  0  0  0  0  0  0  0  0  0
   -2.7713    0.0000    0.0000 H   0  0  0  0  0  0  0  0  0  0  0  0
   -1.3855   -2.4000    0.0000 H   0  0  0  0  0  0  0  0  0  0  0  0
    2.7713    1.6000    0.0000 N   0  0  0  0  0  0  0  0  0  0  0  0
  1  2  1  0  0  0  0
  2  3  1  0  0  0  0
  3  4  2  0  0  0  0
  4  5  1  0  0  0  0
  5  6  1  0  0  0  0
  5  7  1  0  0  0  0
  7  8  1  0  0  0  0
  7  9  1  0  0  0  0
  7 10  1  0  0  0  0
 10 11  1  0  0  0  0
 10 12  1  0  0  0  0
 10 13  1  0  0  0  0
  4 14  1  0  0  0  0
 14 15  2  0  0  0  0
 15 16  1  0  0  0  0
 16 17  1  0  0  0  0
 16 18  1  0  0  0  0
 18 19  1  0  0  0  0
 18 20  1  0  0  0  0
 18 21  1  0  0  0  0
 21 22  1  0  0  0  0
 21 23  1  0  0  0  0
 21 24  1  0  0  0  0
 15 25  1  0  0  0  0
 25  2  2  0  0  0  0
M  END
> <ChemID>
100977

> <source_casrn>
122-34-9

> <CAS>
122-34-9

> <SMILES>
CCNc1[n]c(Cl)[n]c(NCC)[n]1

> <NAME>
SIMAZINE

> <preferred_name>
Simazine

> <iupac>
6-chloro-N,N'-diethyl-1,3,5-triazine-2,4-diamine

> <MPID>
25608

> <dsstox_substance_id>
DTXSID4021268

> <Canonical_QSARr>
CCNc1[n]c(Cl)[n]c(NCC)[n]1

> <InChI_Code_QSARr>
InChI=1S/C7H12ClN5/c1-3-9-6-11-5(8)12-7(13-6)10-4-2/h3-4H2,1-2H3,(H2,9,10,11,12,13)

> <InChI Key_QSARr>
ODCWYMIRDDJXKW-UHFFFAOYSA-N

> <Salt_Solvent>
?

> <LogVP>
-7.6556

$$$$
100981
  -INDIGO-08031723152D

 21 21  0  0  0  0  0  0  0  0999 V2000
   -4.1569    2.4000    0.0000 O   0  0  0  0  0  0  0  0  0  0  0  0
   -4.1569    0.8000    0.0000 C   0  0  0  0  0  0  0  0  0  0  0  0
   -2.7712   -0.0000    0.0000 C   0  0  0  0  0  0  0  0  0  0  0  0
   -2.7712   -1.6000    0.0000 H   0  0  0  0  0  0  0  0  0  0  0  0
   -1.3857    0.8000    0.0000 C   0  0  0  0  0  0  0  0  0  0  0  0
   -1.3857    2.4000    0.0000 H   0  0  0  0  0  0  0  0  0  0  0  0
   -0.0001   -0.0000    0.0000 C   0  0  0  0  0  0  0  0  0  0  0  0
    1.3856    0.8000    0.0000 C   0  0  0  0  0  0  0  0  0  0  0  0
    1.3856    2.4000    0.0000 H   0  0  0  0  0  0  0  0  0  0  0  0
    2.7713   -0.0000    0.0000 C   0  0  0  0  0  0  0  0  0  0  0  0
    4.1569    0.8000    0.0000 H   0  0  0  0  0  0  0  0  0  0  0  0
    2.7713   -1.6000    0.0000 C   0  0  0  0  0  0  0  0  0  0  0  0
    4.1569   -2.4000    0.0000 H   0  0  0  0  0  0  0  0  0  0  0  0
    1.3856   -2.4000    0.0000 C   0  0  0  0  0  0  0  0  0  0  0  0
    1.3856   -4.0000    0.0000 H   0  0  0  0  0  0  0  0  0  0  0  0
   -0.0001   -1.6000    0.0000 C   0  0  0  0  0  0  0  0  0  0  0  0
   -1.3857   -2.4000    0.0000 H   0  0  0  0  0  0  0  0  0  0  0  0
   -5.5425   -0.0000    0.0000 C   0  0  0  0  0  0  0  0  0  0  0  0
   -6.9282   -0.8000    0.0000 H   0  0  0  0  0  0  0  0  0  0  0  0
   -6.9282    0.8000    0.0000 H   0  0  0  0  0  0  0  0  0  0  0  0
   -5.5425   -1.6000    0.0000 H   0  0  0  0  0  0  0  0  0  0  0  0
  1  2  2  0  0  0  0
  2  3  1  0  0  0  0
  3  4  1  0  0  0  0
  3  5  2  0  0  0  0
  5  6  1  0  0  0  0
  5  7  1  0  0  0  0
  7  8  1  0  0  0  0
  8  9  1  0  0  0  0
  8 10  2  0  0  0  0
 10 11  1  0  0  0  0
 10 12  1  0  0  0  0
 12 13  1  0  0  0  0
 12 14  2  0  0  0  0
 14 15  1  0  0  0  0
 14 16  1  0  0  0  0
 16  7  2  0  0  0  0
 16 17  1  0  0  0  0
  2 18  1  0  0  0  0
 18 19  1  0  0  0  0
 18 20  1  0  0  0  0
 18 21  1  0  0  0  0
M  END
> <ChemID>
100981

> <source_casrn>
122-57-6

> <CAS>
122-57-6

> <SMILES>
CC(=O)C=Cc1ccccc1

> <NAME>
METHYL STYRYL KETONE

> <preferred_name>
Methyl styryl ketone

> <iupac>
4-phenylbut-3-en-2-one

> <MPID>
25612

> <dsstox_substance_id>
DTXSID4025662

> <Canonical_QSARr>
CC(=O)C=Cc1ccccc1

> <InChI_Code_QSARr>
InChI=1S/C10H10O/c1-9(11)7-8-10-5-3-2-4-6-10/h2-8H,1H3/b8-7+

> <InChI Key_QSARr>
BWHOZHOGCMHOBV-BQYQJAHWSA-N

> <Salt_Solvent>
?

> <LogVP>
-1.9066

$$$$
100985
  -INDIGO-08031723152D

 18 18  0  0  0  0  0  0  0  0999 V2000
   -2.7713   -0.0000    0.0000 C   0  0  0  0  0  0  0  0  0  0  0  0
   -2.7713   -1.6000    0.0000 O   0  0  0  0  0  0  0  0  0  0  0  0
   -1.3857    0.8000    0.0000 O   0  0  0  0  0  0  0  0  0  0  0  0
    0.0001   -0.0000    0.0000 C   0  0  0  0  0  0  0  0  0  0  0  0
    0.0001   -1.6000    0.0000 C   0  0  0  0  0  0  0  0  0  0  0  0
   -1.3857   -2.4000    0.0000 H   0  0  0  0  0  0  0  0  0  0  0  0
    1.3857   -2.4000    0.0000 C   0  0  0  0  0  0  0  0  0  0  0  0
    1.3857   -4.0000    0.0000 H   0  0  0  0  0  0  0  0  0  0  0  0
    2.7713   -1.6000    0.0000 C   0  0  0  0  0  0  0  0  0  0  0  0
    4.1569   -2.4000    0.0000 H   0  0  0  0  0  0  0  0  0  0  0  0
    2.7713   -0.0000    0.0000 C   0  0  0  0  0  0  0  0  0  0  0  0
    4.1569    0.8000    0.0000 H   0  0  0  0  0  0  0  0  0  0  0  0
    1.3857    0.8000    0.0000 C   0  0  0  0  0  0  0  0  0  0  0  0
    1.3857    2.4000    0.0000 H   0  0  0  0  0  0  0  0  0  0  0  0
   -4.1569    0.8000    0.0000 C   0  0  0  0  0  0  0  0  0  0  0  0
   -5.5426    1.6000    0.0000 H   0  0  0  0  0  0  0  0  0  0  0  0
   -5.5426   -0.0000    0.0000 H   0  0  0  0  0  0  0  0  0  0  0  0
   -4.1569    2.4000    0.0000 H   0  0  0  0  0  0  0  0  0  0  0  0
  1  2  2  0  0  0  0
  1  3  1  0  0  0  0
  3  4  1  0  0  0  0
  4  5  1  0  0  0  0
  5  6  1  0  0  0  0
  5  7  2  0  0  0  0
  7  8  1  0  0  0  0
  7  9  1  0  0  0  0
  9 10  1  0  0  0  0
  9 11  2  0  0  0  0
 11 12  1  0  0  0  0
 11 13  1  0  0  0  0
 13  4  2  0  0  0  0
 13 14  1  0  0  0  0
  1 15  1  0  0  0  0
 15 16  1  0  0  0  0
 15 17  1  0  0  0  0
 15 18  1  0  0  0  0
M  END
> <ChemID>
100985

> <source_casrn>
122-79-2

> <CAS>
122-79-2

> <SMILES>
CC(=O)Oc1ccccc1

> <NAME>
PHENYL ACETATE

> <preferred_name>
Phenyl acetate

> <iupac>
phenyl acetate

> <MPID>
25616

> <dsstox_substance_id>
DTXSID3051626

> <Canonical_QSARr>
CC(=O)Oc1ccccc1

> <InChI_Code_QSARr>
InChI=1S/C8H8O2/c1-7(9)10-8-5-3-2-4-6-8/h2-6H,1H3

> <InChI Key_QSARr>
IPBVNPXQWQGGJP-UHFFFAOYSA-N

> <Salt_Solvent>
?

> <LogVP>
-0.3997

$$$$
100989
  -INDIGO-08031723152D

 48 48  0  0  0  0  0  0  0  0999 V2000
   -8.3138   -0.0000    0.0000 C   0  0  0  0  0  0  0  0  0  0  0  0
   -8.3138   -1.6000    0.0000 C   0  0  0  0  0  0  0  0  0  0  0  0
   -6.9281   -2.4000    0.0000 H   0  0  0  0  0  0  0  0  0  0  0  0
   -9.6994   -2.4000    0.0000 C   0  0  0  0  0  0  0  0  0  0  0  0
   -9.6994   -4.0000    0.0000 H   0  0  0  0  0  0  0  0  0  0  0  0
  -11.0851   -1.6000    0.0000 C   0  0  0  0  0  0  0  0  0  0  0  0
  -12.4708   -2.4000    0.0000 H   0  0  0  0  0  0  0  0  0  0  0  0
  -11.0851   -0.0000    0.0000 C   0  0  0  0  0  0  0  0  0  0  0  0
  -12.4708    0.8000    0.0000 H   0  0  0  0  0  0  0  0  0  0  0  0
   -9.6994    0.8000    0.0000 C   0  0  0  0  0  0  0  0  0  0  0  0
   -9.6994    2.4000    0.0000 H   0  0  0  0  0  0  0  0  0  0  0  0
   -6.9281    0.8000    0.0000 C   0  0  0  0  0  0  0  0  0  0  0  0
   -6.3158    2.2782    0.0000 H   0  0  0  0  0  0  0  0  0  0  0  0
   -7.5404    2.2782    0.0000 H   0  0  0  0  0  0  0  0  0  0  0  0
   -5.5425   -0.0000    0.0000 C   0  0  0  0  0  0  0  0  0  0  0  0
   -6.1548   -1.4782    0.0000 H   0  0  0  0  0  0  0  0  0  0  0  0
   -4.9301   -1.4782    0.0000 H   0  0  0  0  0  0  0  0  0  0  0  0
   -4.1568    0.8000    0.0000 C   0  0  0  0  0  0  0  0  0  0  0  0
   -3.5445    2.2782    0.0000 H   0  0  0  0  0  0  0  0  0  0  0  0
   -4.7691    2.2782    0.0000 H   0  0  0  0  0  0  0  0  0  0  0  0
   -2.7711   -0.0000    0.0000 C   0  0  0  0  0  0  0  0  0  0  0  0
   -3.3834   -1.4782    0.0000 H   0  0  0  0  0  0  0  0  0  0  0  0
   -2.1592   -1.4782    0.0000 H   0  0  0  0  0  0  0  0  0  0  0  0
   -1.3855    0.8000    0.0000 C   0  0  0  0  0  0  0  0  0  0  0  0
   -0.7735    2.2782    0.0000 H   0  0  0  0  0  0  0  0  0  0  0  0
   -1.9978    2.2782    0.0000 H   0  0  0  0  0  0  0  0  0  0  0  0
   -0.0001   -0.0000    0.0000 C   0  0  0  0  0  0  0  0  0  0  0  0
   -0.6121   -1.4782    0.0000 H   0  0  0  0  0  0  0  0  0  0  0  0
    0.6122   -1.4782    0.0000 H   0  0  0  0  0  0  0  0  0  0  0  0
    1.3855    0.8000    0.0000 C   0  0  0  0  0  0  0  0  0  0  0  0
    1.9978    2.2782    0.0000 H   0  0  0  0  0  0  0  0  0  0  0  0
    0.7732    2.2782    0.0000 H   0  0  0  0  0  0  0  0  0  0  0  0
    2.7712   -0.0000    0.0000 C   0  0  0  0  0  0  0  0  0  0  0  0
    2.1589   -1.4782    0.0000 H   0  0  0  0  0  0  0  0  0  0  0  0
    3.3835   -1.4782    0.0000 H   0  0  0  0  0  0  0  0  0  0  0  0
    4.1568    0.8000    0.0000 C   0  0  0  0  0  0  0  0  0  0  0  0
    4.7692    2.2782    0.0000 H   0  0  0  0  0  0  0  0  0  0  0  0
    3.5445    2.2782    0.0000 H   0  0  0  0  0  0  0  0  0  0  0  0
    5.5425   -0.0000    0.0000 C   0  0  0  0  0  0  0  0  0  0  0  0
    4.9302   -1.4782    0.0000 H   0  0  0  0  0  0  0  0  0  0  0  0
    6.1548   -1.4782    0.0000 H   0  0  0  0  0  0  0  0  0  0  0  0
    6.9282    0.8000    0.0000 C   0  0  0  0  0  0  0  0  0  0  0  0
    7.5405    2.2782    0.0000 H   0  0  0  0  0  0  0  0  0  0  0  0
    6.3158    2.2782    0.0000 H   0  0  0  0  0  0  0  0  0  0  0  0
    8.3138   -0.0000    0.0000 C   0  0  0  0  0  0  0  0  0  0  0  0
    9.6995   -0.8000    0.0000 H   0  0  0  0  0  0  0  0  0  0  0  0
    9.6995    0.8000    0.0000 H   0  0  0  0  0  0  0  0  0  0  0  0
    8.3138   -1.6000    0.0000 H   0  0  0  0  0  0  0  0  0  0  0  0
  1  2  1  0  0  0  0
  2  3  1  0  0  0  0
  2  4  2  0  0  0  0
  4  5  1  0  0  0  0
  4  6  1  0  0  0  0
  6  7  1  0  0  0  0
  6  8  2  0  0  0  0
  8  9  1  0  0  0  0
  8 10  1  0  0  0  0
 10  1  2  0  0  0  0
 10 11  1  0  0  0  0
  1 12  1  0  0  0  0
 12 13  1  0  0  0  0
 12 14  1  0  0  0  0
 12 15  1  0  0  0  0
 15 16  1  0  0  0  0
 15 17  1  0  0  0  0
 15 18  1  0  0  0  0
 18 19  1  0  0  0  0
 18 20  1  0  0  0  0
 18 21  1  0  0  0  0
 21 22  1  0  0  0  0
 21 23  1  0  0  0  0
 21 24  1  0  0  0  0
 24 25  1  0  0  0  0
 24 26  1  0  0  0  0
 24 27  1  0  0  0  0
 27 28  1  0  0  0  0
 27 29  1  0  0  0  0
 27 30  1  0  0  0  0
 30 31  1  0  0  0  0
 30 32  1  0  0  0  0
 30 33  1  0  0  0  0
 33 34  1  0  0  0  0
 33 35  1  0  0  0  0
 33 36  1  0  0  0  0
 36 37  1  0  0  0  0
 36 38  1  0  0  0  0
 36 39  1  0  0  0  0
 39 40  1  0  0  0  0
 39 41  1  0  0  0  0
 39 42  1  0  0  0  0
 42 43  1  0  0  0  0
 42 44  1  0  0  0  0
 42 45  1  0  0  0  0
 45 46  1  0  0  0  0
 45 47  1  0  0  0  0
 45 48  1  0  0  0  0
M  END
> <ChemID>
100989

> <source_casrn>
123-01-3

> <CAS>
123-01-3

> <SMILES>
CCCCCCCCCCCCc1ccccc1

> <NAME>
DODECYLBENZENE

> <preferred_name>
Dodecylbenzene

> <iupac>
dodecylbenzene

> <MPID>
25620

> <dsstox_substance_id>
DTXSID7026994

> <Canonical_QSARr>
CCCCCCCCCCCCc1ccccc1

> <InChI_Code_QSARr>
InChI=1S/C18H30/c1-2-3-4-5-6-7-8-9-10-12-15-18-16-13-11-14-17-18/h11,13-14,16-17H,2-10,12,15H2,1H3

> <InChI Key_QSARr>
KWKXNDCHNDYVRT-UHFFFAOYSA-N

> <Salt_Solvent>
?

> <LogVP>
-4.2916

$$$$
100993
  -INDIGO-08031723152D

 19 19  0  0  0  0  0  0  0  0999 V2000
    4.8000   -0.0000    0.0000 O   0  0  0  0  0  0  0  0  0  0  0  0
    5.6000   -1.3856    0.0000 H   0  0  0  0  0  0  0  0  0  0  0  0
    3.2000   -0.0000    0.0000 C   0  0  0  0  0  0  0  0  0  0  0  0
    2.4000    1.3856    0.0000 C   0  0  0  0  0  0  0  0  0  0  0  0
    3.2000    2.7713    0.0000 H   0  0  0  0  0  0  0  0  0  0  0  0
    0.8001    1.3856    0.0000 C   0  0  0  0  0  0  0  0  0  0  0  0
   -0.0000    2.7713    0.0000 H   0  0  0  0  0  0  0  0  0  0  0  0
   -0.0000   -0.0000    0.0000 C   0  0  0  0  0  0  0  0  0  0  0  0
   -1.6000   -0.0000    0.0000 C   0  0  0  0  0  0  0  0  0  0  0  0
   -1.8089   -1.5863    0.0000 H   0  0  0  0  0  0  0  0  0  0  0  0
   -2.8694   -0.9740    0.0000 H   0  0  0  0  0  0  0  0  0  0  0  0
   -2.4001    1.3856    0.0000 C   0  0  0  0  0  0  0  0  0  0  0  0
   -4.0000    1.3856    0.0000 H   0  0  0  0  0  0  0  0  0  0  0  0
   -3.2000    2.7713    0.0000 H   0  0  0  0  0  0  0  0  0  0  0  0
   -3.2000   -0.0000    0.0000 H   0  0  0  0  0  0  0  0  0  0  0  0
    0.8001   -1.3856    0.0000 C   0  0  0  0  0  0  0  0  0  0  0  0
   -0.0000   -2.7713    0.0000 H   0  0  0  0  0  0  0  0  0  0  0  0
    2.4000   -1.3856    0.0000 C   0  0  0  0  0  0  0  0  0  0  0  0
    3.2000   -2.7713    0.0000 H   0  0  0  0  0  0  0  0  0  0  0  0
  1  2  1  0  0  0  0
  1  3  1  0  0  0  0
  3  4  1  0  0  0  0
  4  5  1  0  0  0  0
  4  6  2  0  0  0  0
  6  7  1  0  0  0  0
  6  8  1  0  0  0  0
  8  9  1  0  0  0  0
  9 10  1  0  0  0  0
  9 11  1  0  0  0  0
  9 12  1  0  0  0  0
 12 13  1  0  0  0  0
 12 14  1  0  0  0  0
 12 15  1  0  0  0  0
  8 16  2  0  0  0  0
 16 17  1  0  0  0  0
 16 18  1  0  0  0  0
 18  3  2  0  0  0  0
 18 19  1  0  0  0  0
M  END
> <ChemID>
100993

> <source_casrn>
123-07-9

> <CAS>
123-07-9

> <SMILES>
CCc1ccc(O)cc1

> <NAME>
P-ETHYLPHENOL

> <preferred_name>
4-Ethylphenol

> <iupac>
4-ethylphenol

> <MPID>
25624

> <dsstox_substance_id>
DTXSID4021977

> <Canonical_QSARr>
CCc1ccc(O)cc1

> <InChI_Code_QSARr>
InChI=1S/C8H10O/c1-2-7-3-5-8(9)6-4-7/h3-6,9H,2H2,1H3

> <InChI Key_QSARr>
HXDOZKJGKXYMEW-UHFFFAOYSA-N

> <Salt_Solvent>
?

> <LogVP>
-1.4295

$$$$
100997
  -INDIGO-08031723152D

 26 25  0  0  0  0  0  0  0  0999 V2000
   -1.3856   -0.8000    0.0000 C   0  0  0  0  0  0  0  0  0  0  0  0
    0.0001    0.0000    0.0000 C   0  0  0  0  0  0  0  0  0  0  0  0
   -0.6123    1.4782    0.0000 H   0  0  0  0  0  0  0  0  0  0  0  0
    0.6122    1.4782    0.0000 H   0  0  0  0  0  0  0  0  0  0  0  0
    1.3856   -0.8000    0.0000 C   0  0  0  0  0  0  0  0  0  0  0  0
    1.9979   -2.2782    0.0000 H   0  0  0  0  0  0  0  0  0  0  0  0
    0.7734   -2.2782    0.0000 H   0  0  0  0  0  0  0  0  0  0  0  0
    2.7713    0.0000    0.0000 C   0  0  0  0  0  0  0  0  0  0  0  0
    4.1570   -0.8000    0.0000 O   0  0  0  0  0  0  0  0  0  0  0  0
    5.5427    0.0000    0.0000 C   0  0  0  0  0  0  0  0  0  0  0  0
    4.9303    1.4782    0.0000 H   0  0  0  0  0  0  0  0  0  0  0  0
    6.1548    1.4782    0.0000 H   0  0  0  0  0  0  0  0  0  0  0  0
    6.9281   -0.8000    0.0000 C   0  0  0  0  0  0  0  0  0  0  0  0
    8.3138   -1.6000    0.0000 H   0  0  0  0  0  0  0  0  0  0  0  0
    8.3138    0.0000    0.0000 H   0  0  0  0  0  0  0  0  0  0  0  0
    6.9281   -2.4000    0.0000 H   0  0  0  0  0  0  0  0  0  0  0  0
    2.7713    1.6000    0.0000 O   0  0  0  0  0  0  0  0  0  0  0  0
   -2.7713    0.0000    0.0000 O   0  0  0  0  0  0  0  0  0  0  0  0
   -4.1570   -0.8000    0.0000 C   0  0  0  0  0  0  0  0  0  0  0  0
   -3.5446   -2.2782    0.0000 H   0  0  0  0  0  0  0  0  0  0  0  0
   -4.7692   -2.2782    0.0000 H   0  0  0  0  0  0  0  0  0  0  0  0
   -5.5425    0.0000    0.0000 C   0  0  0  0  0  0  0  0  0  0  0  0
   -6.9282    0.8000    0.0000 H   0  0  0  0  0  0  0  0  0  0  0  0
   -6.9282   -0.8000    0.0000 H   0  0  0  0  0  0  0  0  0  0  0  0
   -5.5425    1.6000    0.0000 H   0  0  0  0  0  0  0  0  0  0  0  0
   -1.3856   -2.4000    0.0000 O   0  0  0  0  0  0  0  0  0  0  0  0
  1  2  1  0  0  0  0
  2  3  1  0  0  0  0
  2  4  1  0  0  0  0
  2  5  1  0  0  0  0
  5  6  1  0  0  0  0
  5  7  1  0  0  0  0
  5  8  1  0  0  0  0
  8  9  1  0  0  0  0
  9 10  1  0  0  0  0
 10 11  1  0  0  0  0
 10 12  1  0  0  0  0
 10 13  1  0  0  0  0
 13 14  1  0  0  0  0
 13 15  1  0  0  0  0
 13 16  1  0  0  0  0
  8 17  2  0  0  0  0
  1 18  1  0  0  0  0
 18 19  1  0  0  0  0
 19 20  1  0  0  0  0
 19 21  1  0  0  0  0
 19 22  1  0  0  0  0
 22 23  1  0  0  0  0
 22 24  1  0  0  0  0
 22 25  1  0  0  0  0
  1 26  2  0  0  0  0
M  END
> <ChemID>
100997

> <source_casrn>
123-25-1

> <CAS>
123-25-1

> <SMILES>
CCOC(=O)CCC(=O)OCC

> <NAME>
DIETHYL SUCCINATE

> <preferred_name>
Diethyl butanedioate

> <iupac>
diethyl butanedioate

> <MPID>
25628

> <dsstox_substance_id>
DTXSID2038732

> <Canonical_QSARr>
CCOC(=O)CCC(=O)OCC

> <InChI_Code_QSARr>
InChI=1S/C8H14O4/c1-3-11-7(9)5-6-8(10)12-4-2/h3-6H2,1-2H3

> <InChI Key_QSARr>
DKMROQRQHGEIOW-UHFFFAOYSA-N

> <Salt_Solvent>
?

> <LogVP>
-1.3575

$$$$
101001
  -INDIGO-08031723152D

 10  9  0  0  0  0  0  0  0  0999 V2000
    1.3856    0.8000    0.0000 C   0  0  0  0  0  0  0  0  0  0  0  0
    2.7713    1.6000    0.0000 H   0  0  0  0  0  0  0  0  0  0  0  0
    2.7713    0.0000    0.0000 H   0  0  0  0  0  0  0  0  0  0  0  0
    1.3856    2.4000    0.0000 H   0  0  0  0  0  0  0  0  0  0  0  0
   -0.0000    0.0000    0.0000 C   0  0  0  0  0  0  0  0  0  0  0  0
    0.6123   -1.4782    0.0000 H   0  0  0  0  0  0  0  0  0  0  0  0
   -0.6123   -1.4782    0.0000 H   0  0  0  0  0  0  0  0  0  0  0  0
   -1.3856    0.8000    0.0000 C   0  0  0  0  0  0  0  0  0  0  0  0
   -2.7713    0.0000    0.0000 H   0  0  0  0  0  0  0  0  0  0  0  0
   -1.3856    2.4000    0.0000 O   0  0  0  0  0  0  0  0  0  0  0  0
  1  2  1  0  0  0  0
  1  3  1  0  0  0  0
  1  4  1  0  0  0  0
  1  5  1  0  0  0  0
  5  6  1  0  0  0  0
  5  7  1  0  0  0  0
  5  8  1  0  0  0  0
  8  9  1  0  0  0  0
  8 10  2  0  0  0  0
M  END
> <ChemID>
101001

> <source_casrn>
123-38-6

> <CAS>
123-38-6

> <SMILES>
CCC=O

> <NAME>
PROPIONALDEHYDE

> <preferred_name>
Propanal

> <iupac>
propanal

> <MPID>
25632

> <dsstox_substance_id>
DTXSID2021658

> <Canonical_QSARr>
CCC=O

> <InChI_Code_QSARr>
InChI=1S/C3H6O/c1-2-3-4/h3H,2H2,1H3

> <InChI Key_QSARr>
NBBJYMSMWIIQGU-UHFFFAOYSA-N

> <Salt_Solvent>
?

> <LogVP>
2.5008

$$$$
101006
  -INDIGO-08031723152D

 12 12  0  0  0  0  0  0  0  0999 V2000
    2.0944    1.5217    0.0000 N   0  0  0  0  0  0  0  0  0  0  0  0
    3.0349    2.8161    0.0000 H   0  0  0  0  0  0  0  0  0  0  0  0
    2.5888   -0.0000    0.0000 C   0  0  0  0  0  0  0  0  0  0  0  0
    4.1105   -0.4945    0.0000 O   0  0  0  0  0  0  0  0  0  0  0  0
    1.2945   -0.9405    0.0000 C   0  0  0  0  0  0  0  0  0  0  0  0
    2.3650   -2.1295    0.0000 H   0  0  0  0  0  0  0  0  0  0  0  0
    0.2238   -2.1295    0.0000 H   0  0  0  0  0  0  0  0  0  0  0  0
    0.0000   -0.0000    0.0000 C   0  0  0  0  0  0  0  0  0  0  0  0
   -0.8000   -1.3856    0.0000 H   0  0  0  0  0  0  0  0  0  0  0  0
   -1.4617    0.6508    0.0000 H   0  0  0  0  0  0  0  0  0  0  0  0
    0.4944    1.5217    0.0000 C   0  0  0  0  0  0  0  0  0  0  0  0
   -0.4460    2.8161    0.0000 O   0  0  0  0  0  0  0  0  0  0  0  0
  1  2  1  0  0  0  0
  1  3  1  0  0  0  0
  3  4  2  0  0  0  0
  3  5  1  0  0  0  0
  5  6  1  0  0  0  0
  5  7  1  0  0  0  0
  5  8  1  0  0  0  0
  8  9  1  0  0  0  0
  8 10  1  0  0  0  0
  8 11  1  0  0  0  0
 11  1  1  0  0  0  0
 11 12  2  0  0  0  0
M  END
> <ChemID>
101006

> <source_casrn>
123-56-8

> <CAS>
123-56-8

> <SMILES>
O=C1CCC(=O)N1

> <NAME>
SUCCINIMIDE

> <preferred_name>
Succinimide

> <iupac>
pyrrolidine-2,5-dione

> <MPID>
25636

> <dsstox_substance_id>
DTXSID8051629

> <Canonical_QSARr>
O=C1CCC(=O)N1

> <InChI_Code_QSARr>
InChI=1S/C4H5NO2/c6-3-1-2-4(7)5-3/h1-2H2,(H,5,6,7)

> <InChI Key_QSARr>
KZNICNPSHKQLFF-UHFFFAOYSA-N

> <Salt_Solvent>
?

> <LogVP>
-4.1249

$$$$
101010
  -INDIGO-08031723152D

 11 10  0  0  0  0  0  0  0  0999 V2000
    1.3856    0.8000    0.0000 C   0  0  0  0  0  0  0  0  0  0  0  0
    2.7713    1.6000    0.0000 H   0  0  0  0  0  0  0  0  0  0  0  0
    2.7713    0.0000    0.0000 H   0  0  0  0  0  0  0  0  0  0  0  0
    1.3856    2.4000    0.0000 H   0  0  0  0  0  0  0  0  0  0  0  0
    0.0000    0.0000    0.0000 C   0  0  0  0  0  0  0  0  0  0  0  0
    0.0000   -1.6000    0.0000 H   0  0  0  0  0  0  0  0  0  0  0  0
   -1.3856    0.8000    0.0000 C   0  0  0  0  0  0  0  0  0  0  0  0
   -1.3856    2.4000    0.0000 H   0  0  0  0  0  0  0  0  0  0  0  0
   -2.7713    0.0000    0.0000 C   0  0  0  0  0  0  0  0  0  0  0  0
   -4.1569    0.8000    0.0000 H   0  0  0  0  0  0  0  0  0  0  0  0
   -2.7713   -1.6000    0.0000 O   0  0  0  0  0  0  0  0  0  0  0  0
  1  2  1  0  0  0  0
  1  3  1  0  0  0  0
  1  4  1  0  0  0  0
  1  5  1  0  0  0  0
  5  6  1  0  0  0  0
  5  7  2  0  0  0  0
  7  8  1  0  0  0  0
  7  9  1  0  0  0  0
  9 10  1  0  0  0  0
  9 11  2  0  0  0  0
M  END
> <ChemID>
101010

> <source_casrn>
123-73-9|4170-30-3

> <CAS>
123-73-9|4170-30-3

> <SMILES>
C/C=C/C=O

> <NAME>
TRANS-CROTONALDEHYDE, CROTONALDEHYDE

> <preferred_name>
(E)-Crotonaldehyde

> <iupac>
(2E)-but-2-enal

> <MPID>
25640|26805

> <dsstox_substance_id>
DTXSID6020351|DTXSID8024864

> <Canonical_QSARr>
CC=CC=O

> <InChI_Code_QSARr>
InChI=1S/C4H6O/c1-2-3-4-5/h2-4H,1H3/b3-2+

> <InChI Key_QSARr>
MLUCVPSAIODCQM-NSCUHMNNSA-N

> <Salt_Solvent>
?

> <LogVP>
1.4771

$$$$
101014
  -INDIGO-08031723152D

 68 67  0  0  0  0  0  0  0  0999 V2000
    6.9282    0.8000    0.0000 C   0  0  0  0  0  0  0  0  0  0  0  0
    8.3136    0.0000    0.0000 C   0  0  0  0  0  0  0  0  0  0  0  0
    7.7015   -1.4782    0.0000 H   0  0  0  0  0  0  0  0  0  0  0  0
    8.9263   -1.4782    0.0000 H   0  0  0  0  0  0  0  0  0  0  0  0
    9.6996    0.8000    0.0000 C   0  0  0  0  0  0  0  0  0  0  0  0
   10.3117    2.2782    0.0000 H   0  0  0  0  0  0  0  0  0  0  0  0
    9.0870    2.2782    0.0000 H   0  0  0  0  0  0  0  0  0  0  0  0
   11.0850    0.0000    0.0000 C   0  0  0  0  0  0  0  0  0  0  0  0
   10.4729   -1.4782    0.0000 H   0  0  0  0  0  0  0  0  0  0  0  0
   11.6977   -1.4782    0.0000 H   0  0  0  0  0  0  0  0  0  0  0  0
   12.4710    0.8000    0.0000 C   0  0  0  0  0  0  0  0  0  0  0  0
   13.0831    2.2782    0.0000 H   0  0  0  0  0  0  0  0  0  0  0  0
   11.8583    2.2782    0.0000 H   0  0  0  0  0  0  0  0  0  0  0  0
   13.8564    0.0000    0.0000 C   0  0  0  0  0  0  0  0  0  0  0  0
   15.2418    0.8000    0.0000 O   0  0  0  0  0  0  0  0  0  0  0  0
   16.6278    0.0000    0.0000 C   0  0  0  0  0  0  0  0  0  0  0  0
   16.0152   -1.4782    0.0000 H   0  0  0  0  0  0  0  0  0  0  0  0
   17.2399   -1.4782    0.0000 H   0  0  0  0  0  0  0  0  0  0  0  0
   18.0132    0.8000    0.0000 C   0  0  0  0  0  0  0  0  0  0  0  0
   18.6259    2.2782    0.0000 H   0  0  0  0  0  0  0  0  0  0  0  0
   17.4011    2.2782    0.0000 H   0  0  0  0  0  0  0  0  0  0  0  0
   19.3992    0.0000    0.0000 C   0  0  0  0  0  0  0  0  0  0  0  0
   18.7865   -1.4782    0.0000 H   0  0  0  0  0  0  0  0  0  0  0  0
   20.0113   -1.4782    0.0000 H   0  0  0  0  0  0  0  0  0  0  0  0
   20.7846    0.8000    0.0000 C   0  0  0  0  0  0  0  0  0  0  0  0
   21.3967    2.2782    0.0000 H   0  0  0  0  0  0  0  0  0  0  0  0
   20.1725    2.2782    0.0000 H   0  0  0  0  0  0  0  0  0  0  0  0
   22.1700    0.0000    0.0000 C   0  0  0  0  0  0  0  0  0  0  0  0
   21.5579   -1.4782    0.0000 H   0  0  0  0  0  0  0  0  0  0  0  0
   22.7827   -1.4782    0.0000 H   0  0  0  0  0  0  0  0  0  0  0  0
   23.5560    0.8000    0.0000 C   0  0  0  0  0  0  0  0  0  0  0  0
   24.1681    2.2782    0.0000 H   0  0  0  0  0  0  0  0  0  0  0  0
   22.9434    2.2782    0.0000 H   0  0  0  0  0  0  0  0  0  0  0  0
   24.9414    0.0000    0.0000 C   0  0  0  0  0  0  0  0  0  0  0  0
   24.3293   -1.4782    0.0000 H   0  0  0  0  0  0  0  0  0  0  0  0
   25.5541   -1.4782    0.0000 H   0  0  0  0  0  0  0  0  0  0  0  0
   26.3274    0.8000    0.0000 C   0  0  0  0  0  0  0  0  0  0  0  0
   27.7128    1.6000    0.0000 H   0  0  0  0  0  0  0  0  0  0  0  0
   27.7128    0.0000    0.0000 H   0  0  0  0  0  0  0  0  0  0  0  0
   26.3274    2.4000    0.0000 H   0  0  0  0  0  0  0  0  0  0  0  0
   13.8564   -1.6000    0.0000 O   0  0  0  0  0  0  0  0  0  0  0  0
    5.5428    0.0000    0.0000 O   0  0  0  0  0  0  0  0  0  0  0  0
    4.1568    0.8000    0.0000 C   0  0  0  0  0  0  0  0  0  0  0  0
    4.7694    2.2782    0.0000 H   0  0  0  0  0  0  0  0  0  0  0  0
    3.5447    2.2782    0.0000 H   0  0  0  0  0  0  0  0  0  0  0  0
    2.7714    0.0000    0.0000 C   0  0  0  0  0  0  0  0  0  0  0  0
    2.1588   -1.4782    0.0000 H   0  0  0  0  0  0  0  0  0  0  0  0
    3.3835   -1.4782    0.0000 H   0  0  0  0  0  0  0  0  0  0  0  0
    1.3854    0.8000    0.0000 C   0  0  0  0  0  0  0  0  0  0  0  0
    1.9981    2.2782    0.0000 H   0  0  0  0  0  0  0  0  0  0  0  0
    0.7733    2.2782    0.0000 H   0  0  0  0  0  0  0  0  0  0  0  0
    0.0000    0.0000    0.0000 C   0  0  0  0  0  0  0  0  0  0  0  0
   -0.6121   -1.4782    0.0000 H   0  0  0  0  0  0  0  0  0  0  0  0
    0.6121   -1.4782    0.0000 H   0  0  0  0  0  0  0  0  0  0  0  0
   -1.3854    0.8000    0.0000 C   0  0  0  0  0  0  0  0  0  0  0  0
   -0.7733    2.2782    0.0000 H   0  0  0  0  0  0  0  0  0  0  0  0
   -1.9981    2.2782    0.0000 H   0  0  0  0  0  0  0  0  0  0  0  0
   -2.7714    0.0000    0.0000 C   0  0  0  0  0  0  0  0  0  0  0  0
   -3.3835   -1.4782    0.0000 H   0  0  0  0  0  0  0  0  0  0  0  0
   -2.1588   -1.4782    0.0000 H   0  0  0  0  0  0  0  0  0  0  0  0
   -4.1568    0.8000    0.0000 C   0  0  0  0  0  0  0  0  0  0  0  0
   -3.5447    2.2782    0.0000 H   0  0  0  0  0  0  0  0  0  0  0  0
   -4.7694    2.2782    0.0000 H   0  0  0  0  0  0  0  0  0  0  0  0
   -5.5428    0.0000    0.0000 C   0  0  0  0  0  0  0  0  0  0  0  0
   -6.9282   -0.8000    0.0000 H   0  0  0  0  0  0  0  0  0  0  0  0
   -6.9282    0.8000    0.0000 H   0  0  0  0  0  0  0  0  0  0  0  0
   -5.5428   -1.6000    0.0000 H   0  0  0  0  0  0  0  0  0  0  0  0
    6.9282    2.4000    0.0000 O   0  0  0  0  0  0  0  0  0  0  0  0
  1  2  1  0  0  0  0
  2  3  1  0  0  0  0
  2  4  1  0  0  0  0
  2  5  1  0  0  0  0
  5  6  1  0  0  0  0
  5  7  1  0  0  0  0
  5  8  1  0  0  0  0
  8  9  1  0  0  0  0
  8 10  1  0  0  0  0
  8 11  1  0  0  0  0
 11 12  1  0  0  0  0
 11 13  1  0  0  0  0
 11 14  1  0  0  0  0
 14 15  1  0  0  0  0
 15 16  1  0  0  0  0
 16 17  1  0  0  0  0
 16 18  1  0  0  0  0
 16 19  1  0  0  0  0
 19 20  1  0  0  0  0
 19 21  1  0  0  0  0
 19 22  1  0  0  0  0
 22 23  1  0  0  0  0
 22 24  1  0  0  0  0
 22 25  1  0  0  0  0
 25 26  1  0  0  0  0
 25 27  1  0  0  0  0
 25 28  1  0  0  0  0
 28 29  1  0  0  0  0
 28 30  1  0  0  0  0
 28 31  1  0  0  0  0
 31 32  1  0  0  0  0
 31 33  1  0  0  0  0
 31 34  1  0  0  0  0
 34 35  1  0  0  0  0
 34 36  1  0  0  0  0
 34 37  1  0  0  0  0
 37 38  1  0  0  0  0
 37 39  1  0  0  0  0
 37 40  1  0  0  0  0
 14 41  2  0  0  0  0
  1 42  1  0  0  0  0
 42 43  1  0  0  0  0
 43 44  1  0  0  0  0
 43 45  1  0  0  0  0
 43 46  1  0  0  0  0
 46 47  1  0  0  0  0
 46 48  1  0  0  0  0
 46 49  1  0  0  0  0
 49 50  1  0  0  0  0
 49 51  1  0  0  0  0
 49 52  1  0  0  0  0
 52 53  1  0  0  0  0
 52 54  1  0  0  0  0
 52 55  1  0  0  0  0
 55 56  1  0  0  0  0
 55 57  1  0  0  0  0
 55 58  1  0  0  0  0
 58 59  1  0  0  0  0
 58 60  1  0  0  0  0
 58 61  1  0  0  0  0
 61 62  1  0  0  0  0
 61 63  1  0  0  0  0
 61 64  1  0  0  0  0
 64 65  1  0  0  0  0
 64 66  1  0  0  0  0
 64 67  1  0  0  0  0
  1 68  2  0  0  0  0
M  END
> <ChemID>
101014

> <source_casrn>
123-79-5

> <CAS>
123-79-5

> <SMILES>
CCCCCCCCOC(=O)CCCCC(=O)OCCCCCCCC

> <NAME>
DIOCTYL ADIPATE

> <preferred_name>
Dioctyl hexanedioate

> <iupac>
dioctyl hexanedioate

> <MPID>
25644

> <dsstox_substance_id>
DTXSID2021606

> <Canonical_QSARr>
CCCCCCCCOC(=O)CCCCC(=O)OCCCCCCCC

> <InChI_Code_QSARr>
InChI=1S/C22H42O4/c1-3-5-7-9-11-15-19-25-21(23)17-13-14-18-22(24)26-20-16-12-10-8-6-4-2/h3-20H2,1-2H3

> <InChI Key_QSARr>
NEHDRDVHPTWWFG-UHFFFAOYSA-N

> <Salt_Solvent>
?

> <LogVP>
-6.0706

$$$$
101018
  -INDIGO-08031723152D

 27 26  0  0  0  0  0  0  0  0999 V2000
    4.1569   -0.8000    0.0000 C   0  0  0  0  0  0  0  0  0  0  0  0
    5.5426   -1.6000    0.0000 H   0  0  0  0  0  0  0  0  0  0  0  0
    5.5426    0.0000    0.0000 H   0  0  0  0  0  0  0  0  0  0  0  0
    4.1569   -2.4000    0.0000 H   0  0  0  0  0  0  0  0  0  0  0  0
    2.7713    0.0000    0.0000 C   0  0  0  0  0  0  0  0  0  0  0  0
    1.9714   -1.3856    0.0000 H   0  0  0  0  0  0  0  0  0  0  0  0
    1.3856    0.8000    0.0000 C   0  0  0  0  0  0  0  0  0  0  0  0
    1.9980    2.2782    0.0000 H   0  0  0  0  0  0  0  0  0  0  0  0
    0.7733    2.2782    0.0000 H   0  0  0  0  0  0  0  0  0  0  0  0
   -0.0001    0.0000    0.0000 C   0  0  0  0  0  0  0  0  0  0  0  0
   -0.6122   -1.4782    0.0000 H   0  0  0  0  0  0  0  0  0  0  0  0
    0.6123   -1.4782    0.0000 H   0  0  0  0  0  0  0  0  0  0  0  0
   -1.3856    0.8000    0.0000 C   0  0  0  0  0  0  0  0  0  0  0  0
   -0.7734    2.2782    0.0000 H   0  0  0  0  0  0  0  0  0  0  0  0
   -1.9979    2.2782    0.0000 H   0  0  0  0  0  0  0  0  0  0  0  0
   -2.7713    0.0000    0.0000 C   0  0  0  0  0  0  0  0  0  0  0  0
   -3.3836   -1.4782    0.0000 H   0  0  0  0  0  0  0  0  0  0  0  0
   -2.1589   -1.4782    0.0000 H   0  0  0  0  0  0  0  0  0  0  0  0
   -4.1570    0.8000    0.0000 C   0  0  0  0  0  0  0  0  0  0  0  0
   -3.5446    2.2782    0.0000 H   0  0  0  0  0  0  0  0  0  0  0  0
   -4.7692    2.2782    0.0000 H   0  0  0  0  0  0  0  0  0  0  0  0
   -5.5425    0.0000    0.0000 C   0  0  0  0  0  0  0  0  0  0  0  0
   -6.9282   -0.8000    0.0000 H   0  0  0  0  0  0  0  0  0  0  0  0
   -6.9282    0.8000    0.0000 H   0  0  0  0  0  0  0  0  0  0  0  0
   -5.5425   -1.6000    0.0000 H   0  0  0  0  0  0  0  0  0  0  0  0
    3.5713    1.3856    0.0000 O   0  0  0  0  0  0  0  0  0  0  0  0
    5.1713    1.3856    0.0000 H   0  0  0  0  0  0  0  0  0  0  0  0
  1  2  1  0  0  0  0
  1  3  1  0  0  0  0
  1  4  1  0  0  0  0
  1  5  1  0  0  0  0
  5  6  1  0  0  0  0
  5  7  1  0  0  0  0
  7  8  1  0  0  0  0
  7  9  1  0  0  0  0
  7 10  1  0  0  0  0
 10 11  1  0  0  0  0
 10 12  1  0  0  0  0
 10 13  1  0  0  0  0
 13 14  1  0  0  0  0
 13 15  1  0  0  0  0
 13 16  1  0  0  0  0
 16 17  1  0  0  0  0
 16 18  1  0  0  0  0
 16 19  1  0  0  0  0
 19 20  1  0  0  0  0
 19 21  1  0  0  0  0
 19 22  1  0  0  0  0
 22 23  1  0  0  0  0
 22 24  1  0  0  0  0
 22 25  1  0  0  0  0
  5 26  1  0  0  0  0
 26 27  1  0  0  0  0
M  END
> <ChemID>
101018

> <source_casrn>
123-96-6

> <CAS>
123-96-6

> <SMILES>
CCCCCCC(C)O

> <NAME>
2-OCTANOL

> <preferred_name>
2-Octanol

> <iupac>
octan-2-ol

> <MPID>
25648

> <dsstox_substance_id>
DTXSID0027014

> <Canonical_QSARr>
CCCCCCC(C)O

> <InChI_Code_QSARr>
InChI=1S/C8H18O/c1-3-4-5-6-7-8(2)9/h8-9H,3-7H2,1-2H3

> <InChI Key_QSARr>
SJWFXCIHNDVPSH-UHFFFAOYSA-N

> <Salt_Solvent>
?

> <LogVP>
-0.6162

$$$$
101022
  -INDIGO-08031723152D

 14 13  0  0  0  0  0  0  0  0999 V2000
    0.0001    0.0000    0.0000 C   0  0  0  0  0  0  0  0  0  0  0  0
    0.6124    1.4782    0.0000 H   0  0  0  0  0  0  0  0  0  0  0  0
   -0.6122    1.4782    0.0000 H   0  0  0  0  0  0  0  0  0  0  0  0
   -1.3857   -0.8000    0.0000 C   0  0  0  0  0  0  0  0  0  0  0  0
   -1.9980   -2.2782    0.0000 H   0  0  0  0  0  0  0  0  0  0  0  0
   -0.7734   -2.2782    0.0000 H   0  0  0  0  0  0  0  0  0  0  0  0
   -2.7713    0.0000    0.0000 O   0  0  0  0  0  0  0  0  0  0  0  0
   -4.1569   -0.8000    0.0000 C   0  0  0  0  0  0  0  0  0  0  0  0
   -5.5426    0.0000    0.0000 O   0  0  0  0  0  0  0  0  0  0  0  0
   -4.1569   -2.4000    0.0000 Cl  0  0  0  0  0  0  0  0  0  0  0  0
    1.3857   -0.8000    0.0000 O   0  0  0  0  0  0  0  0  0  0  0  0
    2.7713    0.0000    0.0000 C   0  0  0  0  0  0  0  0  0  0  0  0
    4.1569   -0.8000    0.0000 O   0  0  0  0  0  0  0  0  0  0  0  0
    2.7713    1.6000    0.0000 Cl  0  0  0  0  0  0  0  0  0  0  0  0
  1  2  1  0  0  0  0
  1  3  1  0  0  0  0
  1  4  1  0  0  0  0
  4  5  1  0  0  0  0
  4  6  1  0  0  0  0
  4  7  1  0  0  0  0
  7  8  1  0  0  0  0
  8  9  2  0  0  0  0
  8 10  1  0  0  0  0
  1 11  1  0  0  0  0
 11 12  1  0  0  0  0
 12 13  2  0  0  0  0
 12 14  1  0  0  0  0
M  END
> <ChemID>
101022

> <source_casrn>
124-05-0

> <CAS>
124-05-0

> <SMILES>
O=C(Cl)OCCOC(=O)Cl

> <NAME>
Ethylene bis chloroformate

> <preferred_name>
1,2-Bis((chlorocarbonyl)oxy)ethane

> <iupac>
ethane-1,2-diyl dicarbonochloridate

> <MPID>
25652

> <dsstox_substance_id>
DTXSID2051631

> <Canonical_QSARr>
O=C(Cl)OCCOC(=O)Cl

> <InChI_Code_QSARr>
InChI=1S/C4H4Cl2O4/c5-3(7)9-1-2-10-4(6)8/h1-2H2

> <InChI Key_QSARr>
FMACOGSACRRIMK-UHFFFAOYSA-N

> <Salt_Solvent>
?

> <LogVP>
-1.6655

$$$$
101026
  -INDIGO-08031723152D

 27 26  0  0  0  0  0  0  0  0999 V2000
   -1.3855    0.8000    0.0000 C   0  0  0  0  0  0  0  0  0  0  0  0
   -0.7734    2.2782    0.0000 H   0  0  0  0  0  0  0  0  0  0  0  0
   -1.9979    2.2782    0.0000 H   0  0  0  0  0  0  0  0  0  0  0  0
    0.0000    0.0000    0.0000 C   0  0  0  0  0  0  0  0  0  0  0  0
   -0.6123   -1.4782    0.0000 H   0  0  0  0  0  0  0  0  0  0  0  0
    0.6123   -1.4782    0.0000 H   0  0  0  0  0  0  0  0  0  0  0  0
    1.3857    0.8000    0.0000 C   0  0  0  0  0  0  0  0  0  0  0  0
    1.9979    2.2782    0.0000 H   0  0  0  0  0  0  0  0  0  0  0  0
    0.7734    2.2782    0.0000 H   0  0  0  0  0  0  0  0  0  0  0  0
    2.7713    0.0000    0.0000 C   0  0  0  0  0  0  0  0  0  0  0  0
    2.1590   -1.4782    0.0000 H   0  0  0  0  0  0  0  0  0  0  0  0
    3.3836   -1.4782    0.0000 H   0  0  0  0  0  0  0  0  0  0  0  0
    4.1570    0.8000    0.0000 C   0  0  0  0  0  0  0  0  0  0  0  0
    5.5426    1.6000    0.0000 H   0  0  0  0  0  0  0  0  0  0  0  0
    5.5426    0.0000    0.0000 H   0  0  0  0  0  0  0  0  0  0  0  0
    4.1570    2.4000    0.0000 H   0  0  0  0  0  0  0  0  0  0  0  0
   -2.7713    0.0000    0.0000 C   0  0  0  0  0  0  0  0  0  0  0  0
   -3.3836   -1.4782    0.0000 H   0  0  0  0  0  0  0  0  0  0  0  0
   -2.1590   -1.4782    0.0000 H   0  0  0  0  0  0  0  0  0  0  0  0
   -4.1568    0.8000    0.0000 C   0  0  0  0  0  0  0  0  0  0  0  0
   -3.5447    2.2782    0.0000 H   0  0  0  0  0  0  0  0  0  0  0  0
   -4.7691    2.2782    0.0000 H   0  0  0  0  0  0  0  0  0  0  0  0
   -5.5426    0.0000    0.0000 C   0  0  0  0  0  0  0  0  0  0  0  0
   -5.5426   -1.6000    0.0000 H   0  0  0  0  0  0  0  0  0  0  0  0
   -6.9281    0.8000    0.0000 C   0  0  0  0  0  0  0  0  0  0  0  0
   -8.3138    0.0000    0.0000 H   0  0  0  0  0  0  0  0  0  0  0  0
   -6.9281    2.4000    0.0000 H   0  0  0  0  0  0  0  0  0  0  0  0
  1  2  1  0  0  0  0
  1  3  1  0  0  0  0
  1  4  1  0  0  0  0
  4  5  1  0  0  0  0
  4  6  1  0  0  0  0
  4  7  1  0  0  0  0
  7  8  1  0  0  0  0
  7  9  1  0  0  0  0
  7 10  1  0  0  0  0
 10 11  1  0  0  0  0
 10 12  1  0  0  0  0
 10 13  1  0  0  0  0
 13 14  1  0  0  0  0
 13 15  1  0  0  0  0
 13 16  1  0  0  0  0
  1 17  1  0  0  0  0
 17 18  1  0  0  0  0
 17 19  1  0  0  0  0
 17 20  1  0  0  0  0
 20 21  1  0  0  0  0
 20 22  1  0  0  0  0
 20 23  1  0  0  0  0
 23 24  1  0  0  0  0
 23 25  2  0  0  0  0
 25 26  1  0  0  0  0
 25 27  1  0  0  0  0
M  END
> <ChemID>
101026

> <source_casrn>
124-11-8

> <CAS>
124-11-8

> <SMILES>
CCCCCCCC=C

> <NAME>
ISONONENE

> <preferred_name>
1-Nonene

> <iupac>
non-1-ene

> <MPID>
25656

> <dsstox_substance_id>
DTXSID2059562

> <Canonical_QSARr>
CCCCCCCC=C

> <InChI_Code_QSARr>
InChI=1S/C9H18/c1-3-5-7-9-8-6-4-2/h3H,1,4-9H2,2H3

> <InChI Key_QSARr>
JRZJOMJEPLMPRA-UHFFFAOYSA-N

> <Salt_Solvent>
?

> <LogVP>
0.7324

$$$$
101030
  -INDIGO-08031723152D

 32 31  0  0  0  0  0  0  0  0999 V2000
   -4.1570   -0.8000    0.0000 C   0  0  0  0  0  0  0  0  0  0  0  0
   -3.5446   -2.2782    0.0000 H   0  0  0  0  0  0  0  0  0  0  0  0
   -4.7692   -2.2782    0.0000 H   0  0  0  0  0  0  0  0  0  0  0  0
   -2.7713    0.0000    0.0000 C   0  0  0  0  0  0  0  0  0  0  0  0
   -3.3835    1.4782    0.0000 H   0  0  0  0  0  0  0  0  0  0  0  0
   -2.1589    1.4782    0.0000 H   0  0  0  0  0  0  0  0  0  0  0  0
   -1.3856   -0.8000    0.0000 C   0  0  0  0  0  0  0  0  0  0  0  0
   -0.7732   -2.2782    0.0000 H   0  0  0  0  0  0  0  0  0  0  0  0
   -1.9980   -2.2782    0.0000 H   0  0  0  0  0  0  0  0  0  0  0  0
    0.0001    0.0000    0.0000 C   0  0  0  0  0  0  0  0  0  0  0  0
   -0.6123    1.4782    0.0000 H   0  0  0  0  0  0  0  0  0  0  0  0
    0.6122    1.4782    0.0000 H   0  0  0  0  0  0  0  0  0  0  0  0
    1.3856   -0.8000    0.0000 C   0  0  0  0  0  0  0  0  0  0  0  0
    1.9979   -2.2782    0.0000 H   0  0  0  0  0  0  0  0  0  0  0  0
    0.7734   -2.2782    0.0000 H   0  0  0  0  0  0  0  0  0  0  0  0
    2.7713    0.0000    0.0000 C   0  0  0  0  0  0  0  0  0  0  0  0
    2.1589    1.4782    0.0000 H   0  0  0  0  0  0  0  0  0  0  0  0
    3.3836    1.4782    0.0000 H   0  0  0  0  0  0  0  0  0  0  0  0
    4.1570   -0.8000    0.0000 C   0  0  0  0  0  0  0  0  0  0  0  0
    4.7691   -2.2782    0.0000 H   0  0  0  0  0  0  0  0  0  0  0  0
    3.5446   -2.2782    0.0000 H   0  0  0  0  0  0  0  0  0  0  0  0
    5.5427    0.0000    0.0000 C   0  0  0  0  0  0  0  0  0  0  0  0
    4.9303    1.4782    0.0000 H   0  0  0  0  0  0  0  0  0  0  0  0
    6.1548    1.4782    0.0000 H   0  0  0  0  0  0  0  0  0  0  0  0
    6.9281   -0.8000    0.0000 C   0  0  0  0  0  0  0  0  0  0  0  0
    8.3138   -1.6000    0.0000 H   0  0  0  0  0  0  0  0  0  0  0  0
    8.3138    0.0000    0.0000 H   0  0  0  0  0  0  0  0  0  0  0  0
    6.9281   -2.4000    0.0000 H   0  0  0  0  0  0  0  0  0  0  0  0
   -5.5425    0.0000    0.0000 C   0  0  0  0  0  0  0  0  0  0  0  0
   -6.9282    0.8000    0.0000 H   0  0  0  0  0  0  0  0  0  0  0  0
   -6.9282   -0.8000    0.0000 H   0  0  0  0  0  0  0  0  0  0  0  0
   -5.5425    1.6000    0.0000 H   0  0  0  0  0  0  0  0  0  0  0  0
  1  2  1  0  0  0  0
  1  3  1  0  0  0  0
  1  4  1  0  0  0  0
  4  5  1  0  0  0  0
  4  6  1  0  0  0  0
  4  7  1  0  0  0  0
  7  8  1  0  0  0  0
  7  9  1  0  0  0  0
  7 10  1  0  0  0  0
 10 11  1  0  0  0  0
 10 12  1  0  0  0  0
 10 13  1  0  0  0  0
 13 14  1  0  0  0  0
 13 15  1  0  0  0  0
 13 16  1  0  0  0  0
 16 17  1  0  0  0  0
 16 18  1  0  0  0  0
 16 19  1  0  0  0  0
 19 20  1  0  0  0  0
 19 21  1  0  0  0  0
 19 22  1  0  0  0  0
 22 23  1  0  0  0  0
 22 24  1  0  0  0  0
 22 25  1  0  0  0  0
 25 26  1  0  0  0  0
 25 27  1  0  0  0  0
 25 28  1  0  0  0  0
  1 29  1  0  0  0  0
 29 30  1  0  0  0  0
 29 31  1  0  0  0  0
 29 32  1  0  0  0  0
M  END
> <ChemID>
101030

> <source_casrn>
124-18-5

> <CAS>
124-18-5

> <SMILES>
CCCCCCCCCC

> <NAME>
N-DECANE

> <preferred_name>
Decane

> <iupac>
decane

> <MPID>
25660

> <dsstox_substance_id>
DTXSID6024913

> <Canonical_QSARr>
CCCCCCCCCC

> <InChI_Code_QSARr>
InChI=1S/C10H22/c1-3-5-7-9-10-8-6-4-2/h3-10H2,1-2H3

> <InChI Key_QSARr>
DIOQZVSQGTUSAI-UHFFFAOYSA-N

> <Salt_Solvent>
?

> <LogVP>
0.1553

$$$$
101034
  -INDIGO-08031723152D

 10  9  0  0  0  0  0  0  0  0999 V2000
    1.3856    0.8000    0.0000 C   0  0  0  0  0  0  0  0  0  0  0  0
    2.7713    1.6000    0.0000 H   0  0  0  0  0  0  0  0  0  0  0  0
    2.7713    0.0000    0.0000 H   0  0  0  0  0  0  0  0  0  0  0  0
    1.3856    2.4000    0.0000 H   0  0  0  0  0  0  0  0  0  0  0  0
    0.0000    0.0000    0.0000 N   0  0  0  0  0  0  0  0  0  0  0  0
    0.0000   -1.6000    0.0000 H   0  0  0  0  0  0  0  0  0  0  0  0
   -1.3856    0.8000    0.0000 C   0  0  0  0  0  0  0  0  0  0  0  0
   -2.7713    1.6000    0.0000 H   0  0  0  0  0  0  0  0  0  0  0  0
   -2.7713    0.0000    0.0000 H   0  0  0  0  0  0  0  0  0  0  0  0
   -1.3856    2.4000    0.0000 H   0  0  0  0  0  0  0  0  0  0  0  0
  1  2  1  0  0  0  0
  1  3  1  0  0  0  0
  1  4  1  0  0  0  0
  1  5  1  0  0  0  0
  5  6  1  0  0  0  0
  5  7  1  0  0  0  0
  7  8  1  0  0  0  0
  7  9  1  0  0  0  0
  7 10  1  0  0  0  0
M  END
> <ChemID>
101034

> <source_casrn>
124-40-3

> <CAS>
124-40-3

> <SMILES>
CNC

> <NAME>
DIMETHYLAMINE

> <preferred_name>
Dimethylamine

> <iupac>
N-methylmethanamine

> <MPID>
25664

> <dsstox_substance_id>
DTXSID5024057

> <Canonical_QSARr>
CNC

> <InChI_Code_QSARr>
InChI=1S/C2H7N/c1-3-2/h3H,1-2H3

> <InChI Key_QSARr>
ROSDSFDQCJNGOL-UHFFFAOYSA-N

> <Salt_Solvent>
?

> <LogVP>
3.1818

$$$$
101038
  -INDIGO-08031723152D

 44 43  0  0  0  0  0  0  0  0999 V2000
    2.4001    1.3857    0.0000 C   0  0  0  0  0  0  0  0  0  0  0  0
    4.0000    1.3857    0.0000 H   0  0  0  0  0  0  0  0  0  0  0  0
    3.1999    2.7713    0.0000 H   0  0  0  0  0  0  0  0  0  0  0  0
    3.1999   -0.0001    0.0000 H   0  0  0  0  0  0  0  0  0  0  0  0
    0.8000    1.3857    0.0000 C   0  0  0  0  0  0  0  0  0  0  0  0
   -0.4693    2.3596    0.0000 H   0  0  0  0  0  0  0  0  0  0  0  0
    0.5913    2.9720    0.0000 H   0  0  0  0  0  0  0  0  0  0  0  0
   -0.0001   -0.0001    0.0000 C   0  0  0  0  0  0  0  0  0  0  0  0
    1.2692   -0.9740    0.0000 H   0  0  0  0  0  0  0  0  0  0  0  0
    0.2089   -1.5864    0.0000 H   0  0  0  0  0  0  0  0  0  0  0  0
   -1.5999   -0.0001    0.0000 C   0  0  0  0  0  0  0  0  0  0  0  0
   -2.8692    0.9740    0.0000 H   0  0  0  0  0  0  0  0  0  0  0  0
   -1.8089    1.5864    0.0000 H   0  0  0  0  0  0  0  0  0  0  0  0
   -2.4000   -1.3857    0.0000 O   0  0  0  0  0  0  0  0  0  0  0  0
   -3.9999   -1.3857    0.0000 P   0  0  0  0  0  0  0  0  0  0  0  0
   -4.7999   -0.0001    0.0000 O   0  0  0  0  0  0  0  0  0  0  0  0
   -5.6000   -1.3857    0.0000 O   0  0  0  0  0  0  0  0  0  0  0  0
   -6.4001   -0.0001    0.0000 C   0  0  0  0  0  0  0  0  0  0  0  0
   -6.1911    1.5864    0.0000 H   0  0  0  0  0  0  0  0  0  0  0  0
   -5.1308    0.9740    0.0000 H   0  0  0  0  0  0  0  0  0  0  0  0
   -7.9999   -0.0001    0.0000 C   0  0  0  0  0  0  0  0  0  0  0  0
   -8.2089   -1.5864    0.0000 H   0  0  0  0  0  0  0  0  0  0  0  0
   -9.2692   -0.9740    0.0000 H   0  0  0  0  0  0  0  0  0  0  0  0
   -8.8000    1.3857    0.0000 C   0  0  0  0  0  0  0  0  0  0  0  0
   -8.5913    2.9720    0.0000 H   0  0  0  0  0  0  0  0  0  0  0  0
   -7.5307    2.3596    0.0000 H   0  0  0  0  0  0  0  0  0  0  0  0
  -10.4001    1.3857    0.0000 C   0  0  0  0  0  0  0  0  0  0  0  0
  -12.0000    1.3857    0.0000 H   0  0  0  0  0  0  0  0  0  0  0  0
  -11.1999    2.7713    0.0000 H   0  0  0  0  0  0  0  0  0  0  0  0
  -11.1999   -0.0001    0.0000 H   0  0  0  0  0  0  0  0  0  0  0  0
   -4.7999   -2.7712    0.0000 O   0  0  0  0  0  0  0  0  0  0  0  0
   -3.9999   -4.1570    0.0000 C   0  0  0  0  0  0  0  0  0  0  0  0
   -2.5218   -3.5446    0.0000 H   0  0  0  0  0  0  0  0  0  0  0  0
   -2.5218   -4.7692    0.0000 H   0  0  0  0  0  0  0  0  0  0  0  0
   -4.7999   -5.5426    0.0000 C   0  0  0  0  0  0  0  0  0  0  0  0
   -6.2782   -6.1549    0.0000 H   0  0  0  0  0  0  0  0  0  0  0  0
   -6.2782   -4.9302    0.0000 H   0  0  0  0  0  0  0  0  0  0  0  0
   -3.9999   -6.9281    0.0000 C   0  0  0  0  0  0  0  0  0  0  0  0
   -2.5218   -6.3160    0.0000 H   0  0  0  0  0  0  0  0  0  0  0  0
   -2.5218   -7.5405    0.0000 H   0  0  0  0  0  0  0  0  0  0  0  0
   -4.7999   -8.3139    0.0000 C   0  0  0  0  0  0  0  0  0  0  0  0
   -5.6000   -9.6995    0.0000 H   0  0  0  0  0  0  0  0  0  0  0  0
   -3.9999   -9.6995    0.0000 H   0  0  0  0  0  0  0  0  0  0  0  0
   -6.4001   -8.3139    0.0000 H   0  0  0  0  0  0  0  0  0  0  0  0
  1  2  1  0  0  0  0
  1  3  1  0  0  0  0
  1  4  1  0  0  0  0
  1  5  1  0  0  0  0
  5  6  1  0  0  0  0
  5  7  1  0  0  0  0
  5  8  1  0  0  0  0
  8  9  1  0  0  0  0
  8 10  1  0  0  0  0
  8 11  1  0  0  0  0
 11 12  1  0  0  0  0
 11 13  1  0  0  0  0
 11 14  1  0  0  0  0
 14 15  1  0  0  0  0
 15 16  2  0  0  0  0
 15 17  1  0  0  0  0
 17 18  1  0  0  0  0
 18 19  1  0  0  0  0
 18 20  1  0  0  0  0
 18 21  1  0  0  0  0
 21 22  1  0  0  0  0
 21 23  1  0  0  0  0
 21 24  1  0  0  0  0
 24 25  1  0  0  0  0
 24 26  1  0  0  0  0
 24 27  1  0  0  0  0
 27 28  1  0  0  0  0
 27 29  1  0  0  0  0
 27 30  1  0  0  0  0
 15 31  1  0  0  0  0
 31 32  1  0  0  0  0
 32 33  1  0  0  0  0
 32 34  1  0  0  0  0
 32 35  1  0  0  0  0
 35 36  1  0  0  0  0
 35 37  1  0  0  0  0
 35 38  1  0  0  0  0
 38 39  1  0  0  0  0
 38 40  1  0  0  0  0
 38 41  1  0  0  0  0
 41 42  1  0  0  0  0
 41 43  1  0  0  0  0
 41 44  1  0  0  0  0
M  END
> <ChemID>
101038

> <source_casrn>
126-73-8

> <CAS>
126-73-8

> <SMILES>
CCCCOP(=O)(OCCCC)OCCCC

> <NAME>
TRIBUTYLPHOSPHATE

> <preferred_name>
Tributyl phosphate

> <iupac>
tributyl phosphate

> <MPID>
25668

> <dsstox_substance_id>
DTXSID3021986

> <Canonical_QSARr>
CCCCOP(=O)(OCCCC)OCCCC

> <InChI_Code_QSARr>
InChI=1S/C12H27O4P/c1-4-7-10-14-17(13,15-11-8-5-2)16-12-9-6-3/h4-12H2,1-3H3

> <InChI Key_QSARr>
STCOOQWBFONSKY-UHFFFAOYSA-N

> <Salt_Solvent>
?

> <LogVP>
-2.9469

$$$$
101042
  -INDIGO-08031723152D

 10  9  0  0  0  0  0  0  0  0999 V2000
    0.0000    0.0000    0.0000 C   0  0  0  0  0  0  0  0  0  0  0  0
    1.3856    0.8000    0.0000 H   0  0  0  0  0  0  0  0  0  0  0  0
    0.0000    1.6000    0.0000 H   0  0  0  0  0  0  0  0  0  0  0  0
    1.3856   -0.8000    0.0000 H   0  0  0  0  0  0  0  0  0  0  0  0
   -1.3856   -0.8000    0.0000 C   0  0  0  0  0  0  0  0  0  0  0  0
   -2.7713    0.0000    0.0000 C   0  0  0  0  0  0  0  0  0  0  0  0
   -4.1569   -0.8000    0.0000 O   0  0  0  0  0  0  0  0  0  0  0  0
   -5.5426    0.0000    0.0000 H   0  0  0  0  0  0  0  0  0  0  0  0
   -2.7713    1.6000    0.0000 O   0  0  0  0  0  0  0  0  0  0  0  0
   -1.3856   -2.4000    0.0000 O   0  0  0  0  0  0  0  0  0  0  0  0
  1  2  1  0  0  0  0
  1  3  1  0  0  0  0
  1  4  1  0  0  0  0
  1  5  1  0  0  0  0
  5  6  1  0  0  0  0
  6  7  1  0  0  0  0
  7  8  1  0  0  0  0
  6  9  2  0  0  0  0
  5 10  2  0  0  0  0
M  END
> <ChemID>
101042

> <source_casrn>
127-17-3

> <CAS>
127-17-3

> <SMILES>
CC(=O)C(O)=O

> <NAME>
PYRUVIC ACID

> <preferred_name>
2-Oxopropanoic acid

> <iupac>
2-oxopropanoic acid

> <MPID>
25672

> <dsstox_substance_id>
DTXSID2021650

> <Canonical_QSARr>
CC(=O)C(O)=O

> <InChI_Code_QSARr>
InChI=1S/C3H4O3/c1-2(4)3(5)6/h1H3,(H,5,6)

> <InChI Key_QSARr>
LCTONWCANYUPML-UHFFFAOYSA-N

> <Salt_Solvent>
?

> <LogVP>
0.1109

$$$$
101046
  -INDIGO-08031723152D

 26 27  0  0  0  0  0  0  0  0999 V2000
    4.5084   -0.0884    0.0000 C   0  0  0  0  0  0  0  0  0  0  0  0
    5.9605    0.5835    0.0000 H   0  0  0  0  0  0  0  0  0  0  0  0
    5.1147   -1.5691    0.0000 H   0  0  0  0  0  0  0  0  0  0  0  0
    3.8376    1.2062    0.0000 C   0  0  0  0  0  0  0  0  0  0  0  0
    5.3980    1.5600    0.0000 H   0  0  0  0  0  0  0  0  0  0  0  0
    4.4329    2.6914    0.0000 H   0  0  0  0  0  0  0  0  0  0  0  0
    2.2450    1.6766    0.0000 C   0  0  0  0  0  0  0  0  0  0  0  0
    3.2826    2.8946    0.0000 H   0  0  0  0  0  0  0  0  0  0  0  0
   -0.0000    0.0000    0.0000 C   0  0  0  0  0  0  0  0  0  0  0  0
   -1.2956    0.9390    0.0000 C   0  0  0  0  0  0  0  0  0  0  0  0
   -2.5910    1.8780    0.0000 H   0  0  0  0  0  0  0  0  0  0  0  0
   -2.7564    0.2865    0.0000 H   0  0  0  0  0  0  0  0  0  0  0  0
   -1.1301    2.5304    0.0000 H   0  0  0  0  0  0  0  0  0  0  0  0
   -0.5109   -1.5162    0.0000 C   0  0  0  0  0  0  0  0  0  0  0  0
   -1.0220   -3.0324    0.0000 H   0  0  0  0  0  0  0  0  0  0  0  0
   -2.0795   -1.8318    0.0000 H   0  0  0  0  0  0  0  0  0  0  0  0
    0.5467   -2.7168    0.0000 H   0  0  0  0  0  0  0  0  0  0  0  0
    1.6255   -0.0373    0.0000 C   0  0  0  0  0  0  0  0  0  0  0  0
    1.3309   -1.6099    0.0000 H   0  0  0  0  0  0  0  0  0  0  0  0
    1.5557    3.1156    0.0000 C   0  0  0  0  0  0  0  0  0  0  0  0
    2.6369    4.2950    0.0000 H   0  0  0  0  0  0  0  0  0  0  0  0
    0.0582    3.6791    0.0000 H   0  0  0  0  0  0  0  0  0  0  0  0
    3.1299   -0.5821    0.0000 C   0  0  0  0  0  0  0  0  0  0  0  0
    3.1270   -2.1821    0.0000 C   0  0  0  0  0  0  0  0  0  0  0  0
    4.5112   -2.9846    0.0000 H   0  0  0  0  0  0  0  0  0  0  0  0
    1.7399   -2.9797    0.0000 H   0  0  0  0  0  0  0  0  0  0  0  0
  1  2  1  0  0  0  0
  1  3  1  0  0  0  0
  1  4  1  0  0  0  0
  4  5  1  0  0  0  0
  4  6  1  0  0  0  0
  4  7  1  0  0  0  0
  7  8  1  0  0  0  0
  7  9  1  0  0  0  0
  9 10  1  0  0  0  0
 10 11  1  0  0  0  0
 10 12  1  0  0  0  0
 10 13  1  0  0  0  0
  9 14  1  0  0  0  0
 14 15  1  0  0  0  0
 14 16  1  0  0  0  0
 14 17  1  0  0  0  0
  9 18  1  0  0  0  0
 18 19  1  0  0  0  0
 18 20  1  0  0  0  0
 20  7  1  0  0  0  0
 20 21  1  0  0  0  0
 20 22  1  0  0  0  0
 18 23  1  0  0  0  0
 23  1  1  0  0  0  0
 23 24  2  0  0  0  0
 24 25  1  0  0  0  0
 24 26  1  0  0  0  0
M  END
> <ChemID>
101046

> <source_casrn>
127-91-3

> <CAS>
127-91-3

> <SMILES>
CC1(C)C2CC1CCC2=C

> <NAME>
beta-PINENE

> <preferred_name>
beta-Pinene

> <iupac>
6,6-dimethyl-2-methylidenebicyclo[3.1.1]heptane

> <MPID>
25676

> <dsstox_substance_id>
DTXSID7027049

> <Canonical_QSARr>
CC1(C)C2CC1CCC2=C

> <InChI_Code_QSARr>
InChI=1S/C10H16/c1-7-4-5-8-6-9(7)10(8,2)3/h8-9H,1,4-6H2,2-3H3

> <InChI Key_QSARr>
WTARULDDTDQWMU-UHFFFAOYSA-N

> <Salt_Solvent>
?

> <LogVP>
0.4669

$$$$
101050
  -INDIGO-08031723152D

 25 27  0  0  0  0  0  0  0  0999 V2000
    1.3857    2.4000    0.0000 O   0  0  0  0  0  0  0  0  0  0  0  0
    1.3857    0.8000    0.0000 C   0  0  0  0  0  0  0  0  0  0  0  0
    0.0001   -0.0000    0.0000 C   0  0  0  0  0  0  0  0  0  0  0  0
    0.0001   -1.6000    0.0000 C   0  0  0  0  0  0  0  0  0  0  0  0
   -1.3856   -2.4000    0.0000 C   0  0  0  0  0  0  0  0  0  0  0  0
   -1.3856   -4.0000    0.0000 H   0  0  0  0  0  0  0  0  0  0  0  0
   -2.7713   -1.6000    0.0000 C   0  0  0  0  0  0  0  0  0  0  0  0
   -4.1569   -2.4000    0.0000 H   0  0  0  0  0  0  0  0  0  0  0  0
   -2.7713   -0.0000    0.0000 C   0  0  0  0  0  0  0  0  0  0  0  0
   -4.1569    0.8000    0.0000 H   0  0  0  0  0  0  0  0  0  0  0  0
   -1.3856    0.8000    0.0000 C   0  0  0  0  0  0  0  0  0  0  0  0
   -1.3856    2.4000    0.0000 O   0  0  0  0  0  0  0  0  0  0  0  0
   -2.7713    3.2000    0.0000 H   0  0  0  0  0  0  0  0  0  0  0  0
    1.3857   -2.4000    0.0000 C   0  0  0  0  0  0  0  0  0  0  0  0
    1.3857   -4.0000    0.0000 O   0  0  0  0  0  0  0  0  0  0  0  0
    2.7712   -1.6000    0.0000 C   0  0  0  0  0  0  0  0  0  0  0  0
    2.7712   -0.0000    0.0000 C   0  0  0  0  0  0  0  0  0  0  0  0
    4.1569    0.8000    0.0000 C   0  0  0  0  0  0  0  0  0  0  0  0
    4.1569    2.4000    0.0000 H   0  0  0  0  0  0  0  0  0  0  0  0
    5.5425   -0.0000    0.0000 C   0  0  0  0  0  0  0  0  0  0  0  0
    6.9282    0.8000    0.0000 H   0  0  0  0  0  0  0  0  0  0  0  0
    5.5425   -1.6000    0.0000 C   0  0  0  0  0  0  0  0  0  0  0  0
    6.9282   -2.4000    0.0000 H   0  0  0  0  0  0  0  0  0  0  0  0
    4.1569   -2.4000    0.0000 C   0  0  0  0  0  0  0  0  0  0  0  0
    4.1569   -4.0000    0.0000 H   0  0  0  0  0  0  0  0  0  0  0  0
  1  2  2  0  0  0  0
  2  3  1  0  0  0  0
  3  4  1  0  0  0  0
  4  5  2  0  0  0  0
  5  6  1  0  0  0  0
  5  7  1  0  0  0  0
  7  8  1  0  0  0  0
  7  9  2  0  0  0  0
  9 10  1  0  0  0  0
  9 11  1  0  0  0  0
 11  3  2  0  0  0  0
 11 12  1  0  0  0  0
 12 13  1  0  0  0  0
  4 14  1  0  0  0  0
 14 15  2  0  0  0  0
 14 16  1  0  0  0  0
 16 17  1  0  0  0  0
 17  2  1  0  0  0  0
 17 18  2  0  0  0  0
 18 19  1  0  0  0  0
 18 20  1  0  0  0  0
 20 21  1  0  0  0  0
 20 22  2  0  0  0  0
 22 23  1  0  0  0  0
 22 24  1  0  0  0  0
 24 16  2  0  0  0  0
 24 25  1  0  0  0  0
M  END
> <ChemID>
101050

> <source_casrn>
129-43-1

> <CAS>
129-43-1

> <SMILES>
Oc1cccc2c1C(=O)c1ccccc1C2=O

> <NAME>
1-HYDROXYANTHRAQUINONE

> <preferred_name>
1-Hydroxyanthraquinone

> <iupac>
1-hydroxyanthracene-9,10-dione

> <MPID>
25680

> <dsstox_substance_id>
DTXSID1020722

> <Canonical_QSARr>
Oc1cccc2c1C(=O)c1ccccc1C2=O

> <InChI_Code_QSARr>
InChI=1S/C14H8O3/c15-11-7-3-6-10-12(11)14(17)9-5-2-1-4-8(9)13(10)16/h1-7,15H

> <InChI Key_QSARr>
BTLXPCBPYBNQNR-UHFFFAOYSA-N

> <Salt_Solvent>
?

> <LogVP>
-6.6792

$$$$
101054
  -INDIGO-08031723152D

 21 23  0  0  0  0  0  0  0  0999 V2000
   -0.8000    1.3856    0.0000 C   0  0  0  0  0  0  0  0  0  0  0  0
    0.2707    2.5747    0.0000 S   0  0  0  0  0  0  0  0  0  0  0  0
    1.7322    1.9239    0.0000 C   0  0  0  0  0  0  0  0  0  0  0  0
    1.5651    0.3327    0.0000 C   0  0  0  0  0  0  0  0  0  0  0  0
    2.8595   -0.6078    0.0000 C   0  0  0  0  0  0  0  0  0  0  0  0
    2.6921   -2.1990    0.0000 H   0  0  0  0  0  0  0  0  0  0  0  0
    4.3212    0.0430    0.0000 C   0  0  0  0  0  0  0  0  0  0  0  0
    5.6156   -0.8974    0.0000 H   0  0  0  0  0  0  0  0  0  0  0  0
    4.4883    1.6342    0.0000 C   0  0  0  0  0  0  0  0  0  0  0  0
    5.9501    2.2850    0.0000 H   0  0  0  0  0  0  0  0  0  0  0  0
    3.1939    2.5747    0.0000 C   0  0  0  0  0  0  0  0  0  0  0  0
    3.3612    4.1659    0.0000 H   0  0  0  0  0  0  0  0  0  0  0  0
    0.0000    0.0000    0.0000 C   0  0  0  0  0  0  0  0  0  0  0  0
   -0.8000   -1.3856    0.0000 C   0  0  0  0  0  0  0  0  0  0  0  0
    0.0000   -2.7713    0.0000 H   0  0  0  0  0  0  0  0  0  0  0  0
   -2.4000   -1.3856    0.0000 C   0  0  0  0  0  0  0  0  0  0  0  0
   -3.2000   -2.7713    0.0000 H   0  0  0  0  0  0  0  0  0  0  0  0
   -3.2000    0.0000    0.0000 C   0  0  0  0  0  0  0  0  0  0  0  0
   -4.8000    0.0000    0.0000 H   0  0  0  0  0  0  0  0  0  0  0  0
   -2.4000    1.3856    0.0000 C   0  0  0  0  0  0  0  0  0  0  0  0
   -3.2000    2.7713    0.0000 H   0  0  0  0  0  0  0  0  0  0  0  0
  1  2  1  0  0  0  0
  2  3  1  0  0  0  0
  3  4  1  0  0  0  0
  4  5  2  0  0  0  0
  5  6  1  0  0  0  0
  5  7  1  0  0  0  0
  7  8  1  0  0  0  0
  7  9  2  0  0  0  0
  9 10  1  0  0  0  0
  9 11  1  0  0  0  0
 11  3  2  0  0  0  0
 11 12  1  0  0  0  0
  4 13  1  0  0  0  0
 13  1  1  0  0  0  0
 13 14  2  0  0  0  0
 14 15  1  0  0  0  0
 14 16  1  0  0  0  0
 16 17  1  0  0  0  0
 16 18  2  0  0  0  0
 18 19  1  0  0  0  0
 18 20  1  0  0  0  0
 20  1  2  0  0  0  0
 20 21  1  0  0  0  0
M  END
> <ChemID>
101054

> <source_casrn>
132-65-0

> <CAS>
132-65-0

> <SMILES>
c1cccc2[s]c3ccccc3c21

> <NAME>
DIBENZOTHIOPHENE

> <preferred_name>
Dibenzothiophene

> <iupac>
dibenzo[b,d]thiophene

> <MPID>
25684

> <dsstox_substance_id>
DTXSID0047741

> <Canonical_QSARr>
c1cccc2[s]c3ccccc3c21

> <InChI_Code_QSARr>
InChI=1S/C12H8S/c1-3-7-11-9(5-1)10-6-2-4-8-12(10)13-11/h1-8H

> <InChI Key_QSARr>
IYYZUPMFVPLQIF-UHFFFAOYSA-N

> <Salt_Solvent>
?

> <LogVP>
-3.6882

$$$$
101058
  -INDIGO-08031723152D

 20 21  0  0  0  0  0  0  0  0999 V2000
   -0.0001    1.6000    0.0000 C   0  0  0  0  0  0  0  0  0  0  0  0
    1.3856    2.4000    0.0000 C   0  0  0  0  0  0  0  0  0  0  0  0
    1.3856    4.0000    0.0000 H   0  0  0  0  0  0  0  0  0  0  0  0
    2.7712    1.6000    0.0000 C   0  0  0  0  0  0  0  0  0  0  0  0
    4.1569    2.4000    0.0000 H   0  0  0  0  0  0  0  0  0  0  0  0
    2.7713    0.0000    0.0000 C   0  0  0  0  0  0  0  0  0  0  0  0
    4.1569   -0.8000    0.0000 H   0  0  0  0  0  0  0  0  0  0  0  0
    1.3856   -0.8000    0.0000 C   0  0  0  0  0  0  0  0  0  0  0  0
    1.3856   -2.4000    0.0000 H   0  0  0  0  0  0  0  0  0  0  0  0
    0.0001    0.0000    0.0000 C   0  0  0  0  0  0  0  0  0  0  0  0
   -1.3856   -0.8000    0.0000 C   0  0  0  0  0  0  0  0  0  0  0  0
   -1.3856   -2.4000    0.0000 N   0  0  0  0  0  0  0  0  0  0  0  0
   -2.7712   -3.2000    0.0000 H   0  0  0  0  0  0  0  0  0  0  0  0
    0.0001   -3.2000    0.0000 H   0  0  0  0  0  0  0  0  0  0  0  0
   -2.7713    0.0000    0.0000 C   0  0  0  0  0  0  0  0  0  0  0  0
   -4.1569   -0.8000    0.0000 H   0  0  0  0  0  0  0  0  0  0  0  0
   -2.7712    1.6000    0.0000 C   0  0  0  0  0  0  0  0  0  0  0  0
   -4.1569    2.4000    0.0000 H   0  0  0  0  0  0  0  0  0  0  0  0
   -1.3856    2.4000    0.0000 C   0  0  0  0  0  0  0  0  0  0  0  0
   -1.3856    4.0000    0.0000 H   0  0  0  0  0  0  0  0  0  0  0  0
  1  2  1  0  0  0  0
  2  3  1  0  0  0  0
  2  4  2  0  0  0  0
  4  5  1  0  0  0  0
  4  6  1  0  0  0  0
  6  7  1  0  0  0  0
  6  8  2  0  0  0  0
  8  9  1  0  0  0  0
  8 10  1  0  0  0  0
 10  1  1  0  0  0  0
 10 11  2  0  0  0  0
 11 12  1  0  0  0  0
 12 13  1  0  0  0  0
 12 14  1  0  0  0  0
 11 15  1  0  0  0  0
 15 16  1  0  0  0  0
 15 17  2  0  0  0  0
 17 18  1  0  0  0  0
 17 19  1  0  0  0  0
 19  1  2  0  0  0  0
 19 20  1  0  0  0  0
M  END
> <ChemID>
101058

> <source_casrn>
134-32-7

> <CAS>
134-32-7

> <SMILES>
Nc1cccc2ccccc21

> <NAME>
1-NAPHTHYLAMINE

> <preferred_name>
1-Naphthylamine

> <iupac>
naphthalen-1-amine

> <MPID>
25688

> <dsstox_substance_id>
DTXSID7020920

> <Canonical_QSARr>
Nc1cccc2ccccc21

> <InChI_Code_QSARr>
InChI=1S/C10H9N/c11-10-7-3-5-8-4-1-2-6-9(8)10/h1-7H,11H2

> <InChI Key_QSARr>
RUFPHBVGCFYCNW-UHFFFAOYSA-N

> <Salt_Solvent>
?

> <LogVP>
-2.3789

$$$$
101062
  -INDIGO-08031723152D

 19 20  0  0  0  0  0  0  0  0999 V2000
    0.0001   -0.0000    0.0000 C   0  0  0  0  0  0  0  0  0  0  0  0
    1.3857    0.8000    0.0000 C   0  0  0  0  0  0  0  0  0  0  0  0
    1.3857    2.4000    0.0000 H   0  0  0  0  0  0  0  0  0  0  0  0
    2.7713   -0.0000    0.0000 C   0  0  0  0  0  0  0  0  0  0  0  0
    4.1569    0.8000    0.0000 H   0  0  0  0  0  0  0  0  0  0  0  0
    2.7713   -1.6000    0.0000 C   0  0  0  0  0  0  0  0  0  0  0  0
    4.1569   -2.4000    0.0000 H   0  0  0  0  0  0  0  0  0  0  0  0
    1.3857   -2.4000    0.0000 C   0  0  0  0  0  0  0  0  0  0  0  0
    1.3857   -4.0000    0.0000 H   0  0  0  0  0  0  0  0  0  0  0  0
    0.0001   -1.6000    0.0000 C   0  0  0  0  0  0  0  0  0  0  0  0
   -1.3857   -2.4000    0.0000 C   0  0  0  0  0  0  0  0  0  0  0  0
   -1.3857   -4.0000    0.0000 H   0  0  0  0  0  0  0  0  0  0  0  0
   -2.7713   -1.6000    0.0000 C   0  0  0  0  0  0  0  0  0  0  0  0
   -4.1569   -2.4000    0.0000 H   0  0  0  0  0  0  0  0  0  0  0  0
   -2.7713   -0.0000    0.0000 C   0  0  0  0  0  0  0  0  0  0  0  0
   -4.1569    0.8000    0.0000 O   0  0  0  0  0  0  0  0  0  0  0  0
   -5.5426   -0.0000    0.0000 H   0  0  0  0  0  0  0  0  0  0  0  0
   -1.3857    0.8000    0.0000 C   0  0  0  0  0  0  0  0  0  0  0  0
   -1.3857    2.4000    0.0000 H   0  0  0  0  0  0  0  0  0  0  0  0
  1  2  1  0  0  0  0
  2  3  1  0  0  0  0
  2  4  2  0  0  0  0
  4  5  1  0  0  0  0
  4  6  1  0  0  0  0
  6  7  1  0  0  0  0
  6  8  2  0  0  0  0
  8  9  1  0  0  0  0
  8 10  1  0  0  0  0
 10  1  1  0  0  0  0
 10 11  2  0  0  0  0
 11 12  1  0  0  0  0
 11 13  1  0  0  0  0
 13 14  1  0  0  0  0
 13 15  2  0  0  0  0
 15 16  1  0  0  0  0
 16 17  1  0  0  0  0
 15 18  1  0  0  0  0
 18  1  2  0  0  0  0
 18 19  1  0  0  0  0
M  END
> <ChemID>
101062

> <source_casrn>
135-19-3

> <CAS>
135-19-3

> <SMILES>
Oc1cc2ccccc2cc1

> <NAME>
2-NAPHTHOL

> <preferred_name>
2-Naphthalenol

> <iupac>
naphthalen-2-ol

> <MPID>
25692

> <dsstox_substance_id>
DTXSID5027061

> <Canonical_QSARr>
Oc1cc2ccccc2cc1

> <InChI_Code_QSARr>
InChI=1S/C10H8O/c11-10-6-5-8-3-1-2-4-9(8)7-10/h1-7,11H

> <InChI Key_QSARr>
JWAZRIHNYRIHIV-UHFFFAOYSA-N

> <Salt_Solvent>
?

> <LogVP>
-3.4949

$$$$
101066
  -INDIGO-08031723152D

 16 16  0  0  0  0  0  0  0  0999 V2000
    0.0000    1.6000    0.0000 C   0  0  0  0  0  0  0  0  0  0  0  0
    1.3856    2.4000    0.0000 C   0  0  0  0  0  0  0  0  0  0  0  0
    1.3856    4.0000    0.0000 H   0  0  0  0  0  0  0  0  0  0  0  0
    2.7713    1.6000    0.0000 C   0  0  0  0  0  0  0  0  0  0  0  0
    4.1569    2.4000    0.0000 H   0  0  0  0  0  0  0  0  0  0  0  0
    2.7713    0.0000    0.0000 C   0  0  0  0  0  0  0  0  0  0  0  0
    4.1569   -0.8000    0.0000 H   0  0  0  0  0  0  0  0  0  0  0  0
    1.3856   -0.8000    0.0000 C   0  0  0  0  0  0  0  0  0  0  0  0
    1.3856   -2.4000    0.0000 H   0  0  0  0  0  0  0  0  0  0  0  0
    0.0000    0.0000    0.0000 C   0  0  0  0  0  0  0  0  0  0  0  0
   -1.3856   -0.8000    0.0000 C   0  0  0  0  0  0  0  0  0  0  0  0
   -2.7713   -1.6000    0.0000 H   0  0  0  0  0  0  0  0  0  0  0  0
   -1.3856   -2.4000    0.0000 H   0  0  0  0  0  0  0  0  0  0  0  0
   -2.7713    0.0000    0.0000 H   0  0  0  0  0  0  0  0  0  0  0  0
   -1.3856    2.4000    0.0000 S   0  0  0  0  0  0  0  0  0  0  0  0
   -1.3856    4.0000    0.0000 H   0  0  0  0  0  0  0  0  0  0  0  0
  1  2  1  0  0  0  0
  2  3  1  0  0  0  0
  2  4  2  0  0  0  0
  4  5  1  0  0  0  0
  4  6  1  0  0  0  0
  6  7  1  0  0  0  0
  6  8  2  0  0  0  0
  8  9  1  0  0  0  0
  8 10  1  0  0  0  0
 10  1  2  0  0  0  0
 10 11  1  0  0  0  0
 11 12  1  0  0  0  0
 11 13  1  0  0  0  0
 11 14  1  0  0  0  0
  1 15  1  0  0  0  0
 15 16  1  0  0  0  0
M  END
> <ChemID>
101066

> <source_casrn>
137-06-4

> <CAS>
137-06-4

> <SMILES>
Cc1ccccc1S

> <NAME>
2-METHYLBENZENETHIOL

> <preferred_name>
2-Methylbenzenethiol

> <iupac>
2-methylbenzenethiol

> <MPID>
25696

> <dsstox_substance_id>
DTXSID8047135

> <Canonical_QSARr>
Cc1ccccc1S

> <InChI_Code_QSARr>
InChI=1S/C7H8S/c1-6-4-2-3-5-7(6)8/h2-5,8H,1H3

> <InChI Key_QSARr>
LXUNZSDDXMPKLP-UHFFFAOYSA-N

> <Salt_Solvent>
?

> <LogVP>
-0.1928

$$$$
101070
  -INDIGO-08031723152D

 24 23  0  0  0  0  0  0  0  0999 V2000
   -5.5426   -0.0000    0.0000 C   0  0  0  0  0  0  0  0  0  0  0  0
   -4.7426   -1.3857    0.0000 H   0  0  0  0  0  0  0  0  0  0  0  0
   -4.1569    0.8000    0.0000 C   0  0  0  0  0  0  0  0  0  0  0  0
   -2.7712    0.0000    0.0000 O   0  0  0  0  0  0  0  0  0  0  0  0
   -1.3857    0.8000    0.0000 C   0  0  0  0  0  0  0  0  0  0  0  0
   -1.9979    2.2782    0.0000 H   0  0  0  0  0  0  0  0  0  0  0  0
   -0.7733    2.2782    0.0000 H   0  0  0  0  0  0  0  0  0  0  0  0
    0.0000    0.0000    0.0000 C   0  0  0  0  0  0  0  0  0  0  0  0
    0.6124   -1.4782    0.0000 H   0  0  0  0  0  0  0  0  0  0  0  0
   -0.6124   -1.4782    0.0000 H   0  0  0  0  0  0  0  0  0  0  0  0
    1.3857    0.8000    0.0000 C   0  0  0  0  0  0  0  0  0  0  0  0
    0.7733    2.2782    0.0000 H   0  0  0  0  0  0  0  0  0  0  0  0
    1.9979    2.2782    0.0000 H   0  0  0  0  0  0  0  0  0  0  0  0
    2.7712    0.0000    0.0000 C   0  0  0  0  0  0  0  0  0  0  0  0
    4.1569   -0.8000    0.0000 H   0  0  0  0  0  0  0  0  0  0  0  0
    4.1569    0.8000    0.0000 H   0  0  0  0  0  0  0  0  0  0  0  0
    2.7712   -1.6000    0.0000 H   0  0  0  0  0  0  0  0  0  0  0  0
   -4.1569    2.4000    0.0000 O   0  0  0  0  0  0  0  0  0  0  0  0
   -6.3426    1.3857    0.0000 O   0  0  0  0  0  0  0  0  0  0  0  0
   -7.9426    1.3857    0.0000 H   0  0  0  0  0  0  0  0  0  0  0  0
   -6.9281   -0.8000    0.0000 C   0  0  0  0  0  0  0  0  0  0  0  0
   -8.3138   -1.6000    0.0000 H   0  0  0  0  0  0  0  0  0  0  0  0
   -8.3138   -0.0000    0.0000 H   0  0  0  0  0  0  0  0  0  0  0  0
   -6.9281   -2.4000    0.0000 H   0  0  0  0  0  0  0  0  0  0  0  0
  1  2  1  0  0  0  0
  1  3  1  0  0  0  0
  3  4  1  0  0  0  0
  4  5  1  0  0  0  0
  5  6  1  0  0  0  0
  5  7  1  0  0  0  0
  5  8  1  0  0  0  0
  8  9  1  0  0  0  0
  8 10  1  0  0  0  0
  8 11  1  0  0  0  0
 11 12  1  0  0  0  0
 11 13  1  0  0  0  0
 11 14  1  0  0  0  0
 14 15  1  0  0  0  0
 14 16  1  0  0  0  0
 14 17  1  0  0  0  0
  3 18  2  0  0  0  0
  1 19  1  0  0  0  0
 19 20  1  0  0  0  0
  1 21  1  0  0  0  0
 21 22  1  0  0  0  0
 21 23  1  0  0  0  0
 21 24  1  0  0  0  0
M  END
> <ChemID>
101070

> <source_casrn>
138-22-7

> <CAS>
138-22-7

> <SMILES>
CCCCOC(=O)C(C)O

> <NAME>
BUTYL LACTATE

> <preferred_name>
Butyl lactate

> <iupac>
butyl 2-hydroxypropanoate

> <MPID>
25700

> <dsstox_substance_id>
DTXSID7042196

> <Canonical_QSARr>
CCCCOC(=O)C(C)O

> <InChI_Code_QSARr>
InChI=1S/C7H14O3/c1-3-4-5-10-7(9)6(2)8/h6,8H,3-5H2,1-2H3

> <InChI Key_QSARr>
MRABAEUHTLLEML-UHFFFAOYSA-N

> <Salt_Solvent>
?

> <LogVP>
-0.3979

$$$$
101074
  -INDIGO-08031723152D

 19 19  0  0  0  0  0  0  0  0999 V2000
    0.0001   -0.0000    0.0000 C   0  0  0  0  0  0  0  0  0  0  0  0
    1.3857    0.8000    0.0000 C   0  0  0  0  0  0  0  0  0  0  0  0
    1.3857    2.4000    0.0000 H   0  0  0  0  0  0  0  0  0  0  0  0
    2.7712   -0.0000    0.0000 C   0  0  0  0  0  0  0  0  0  0  0  0
    2.7712   -1.6000    0.0000 H   0  0  0  0  0  0  0  0  0  0  0  0
    4.1569    0.8000    0.0000 C   0  0  0  0  0  0  0  0  0  0  0  0
    5.5425   -0.0000    0.0000 O   0  0  0  0  0  0  0  0  0  0  0  0
    6.9282    0.8000    0.0000 H   0  0  0  0  0  0  0  0  0  0  0  0
    4.1569    2.4000    0.0000 O   0  0  0  0  0  0  0  0  0  0  0  0
    0.0001   -1.6000    0.0000 C   0  0  0  0  0  0  0  0  0  0  0  0
    1.3857   -2.4000    0.0000 H   0  0  0  0  0  0  0  0  0  0  0  0
   -1.3856   -2.4000    0.0000 C   0  0  0  0  0  0  0  0  0  0  0  0
   -1.3856   -4.0000    0.0000 H   0  0  0  0  0  0  0  0  0  0  0  0
   -2.7713   -1.6000    0.0000 C   0  0  0  0  0  0  0  0  0  0  0  0
   -4.1569   -2.4000    0.0000 H   0  0  0  0  0  0  0  0  0  0  0  0
   -2.7713   -0.0000    0.0000 C   0  0  0  0  0  0  0  0  0  0  0  0
   -4.1569    0.8000    0.0000 H   0  0  0  0  0  0  0  0  0  0  0  0
   -1.3856    0.8000    0.0000 C   0  0  0  0  0  0  0  0  0  0  0  0
   -1.3856    2.4000    0.0000 H   0  0  0  0  0  0  0  0  0  0  0  0
  1  2  1  0  0  0  0
  2  3  1  0  0  0  0
  2  4  2  0  0  0  0
  4  5  1  0  0  0  0
  4  6  1  0  0  0  0
  6  7  1  0  0  0  0
  7  8  1  0  0  0  0
  6  9  2  0  0  0  0
  1 10  1  0  0  0  0
 10 11  1  0  0  0  0
 10 12  2  0  0  0  0
 12 13  1  0  0  0  0
 12 14  1  0  0  0  0
 14 15  1  0  0  0  0
 14 16  2  0  0  0  0
 16 17  1  0  0  0  0
 16 18  1  0  0  0  0
 18  1  2  0  0  0  0
 18 19  1  0  0  0  0
M  END
> <ChemID>
101074

> <source_casrn>
140-10-3|621-82-9

> <CAS>
140-10-3|621-82-9

> <SMILES>
OC(=O)/C=C/c1ccccc1

> <NAME>
2-PROPENOIC ACID, 3-PHENYL-, (E)-, CINNAMIC ACID

> <preferred_name>
E-Cinnamic acid

> <iupac>
(2E)-3-phenylprop-2-enoic acid

> <MPID>
25704|26238

> <dsstox_substance_id>
DTXSID5022489|DTXSID40110056

> <Canonical_QSARr>
OC(=O)C=Cc1ccccc1

> <InChI_Code_QSARr>
InChI=1S/C9H8O2/c10-9(11)7-6-8-4-2-1-3-5-8/h1-7H,(H,10,11)/b7-6+

> <InChI Key_QSARr>
WBYWAXJHAXSJNI-VOTSOKGWSA-N

> <Salt_Solvent>
?

> <LogVP>
-4.4933499999999995

$$$$
101078
  -INDIGO-08031723152D

 18 18  0  0  0  0  0  0  0  0999 V2000
   -0.0000    0.0000    0.0000 C   0  0  0  0  0  0  0  0  0  0  0  0
   -0.8000    1.3856    0.0000 C   0  0  0  0  0  0  0  0  0  0  0  0
   -0.0000    2.7713    0.0000 H   0  0  0  0  0  0  0  0  0  0  0  0
   -2.4000    1.3856    0.0000 C   0  0  0  0  0  0  0  0  0  0  0  0
   -3.1999    2.7713    0.0000 H   0  0  0  0  0  0  0  0  0  0  0  0
   -3.1999    0.0000    0.0000 C   0  0  0  0  0  0  0  0  0  0  0  0
   -4.8000   -0.0000    0.0000 C   0  0  0  0  0  0  0  0  0  0  0  0
   -6.4000    0.0000    0.0000 H   0  0  0  0  0  0  0  0  0  0  0  0
   -5.6000   -1.3856    0.0000 H   0  0  0  0  0  0  0  0  0  0  0  0
   -5.6000    1.3856    0.0000 H   0  0  0  0  0  0  0  0  0  0  0  0
   -2.4000   -1.3856    0.0000 N   0  0  0  0  0  0  0  0  0  0  0  0
   -0.8000   -1.3856    0.0000 C   0  0  0  0  0  0  0  0  0  0  0  0
   -0.0000   -2.7713    0.0000 H   0  0  0  0  0  0  0  0  0  0  0  0
    1.6001   -0.0000    0.0000 C   0  0  0  0  0  0  0  0  0  0  0  0
    2.4000    1.3856    0.0000 H   0  0  0  0  0  0  0  0  0  0  0  0
    2.4000   -1.3856    0.0000 C   0  0  0  0  0  0  0  0  0  0  0  0
    4.0000   -1.3856    0.0000 H   0  0  0  0  0  0  0  0  0  0  0  0
    1.6001   -2.7713    0.0000 H   0  0  0  0  0  0  0  0  0  0  0  0
  1  2  1  0  0  0  0
  2  3  1  0  0  0  0
  2  4  2  0  0  0  0
  4  5  1  0  0  0  0
  4  6  1  0  0  0  0
  6  7  1  0  0  0  0
  7  8  1  0  0  0  0
  7  9  1  0  0  0  0
  7 10  1  0  0  0  0
  6 11  2  0  0  0  0
 11 12  1  0  0  0  0
 12  1  2  0  0  0  0
 12 13  1  0  0  0  0
  1 14  1  0  0  0  0
 14 15  1  0  0  0  0
 14 16  2  0  0  0  0
 16 17  1  0  0  0  0
 16 18  1  0  0  0  0
M  END
> <ChemID>
101078

> <source_casrn>
140-76-1

> <CAS>
140-76-1

> <SMILES>
Cc1ccc(C=C)c[n]1

> <NAME>
2-METHYL-5-VINYLPYRIDINE

> <preferred_name>
2-Methyl-5-vinylpyridine

> <iupac>
5-Ethenyl-2-methylpyridine

> <MPID>
25708

> <dsstox_substance_id>
DTXSID2059699

> <Canonical_QSARr>
Cc1ccc(C=C)c[n]1

> <InChI_Code_QSARr>
InChI=1S/C8H9N/c1-3-8-5-4-7(2)9-6-8/h3-6H,1H2,2H3

> <InChI Key_QSARr>
VJOWMORERYNYON-UHFFFAOYSA-N

> <Salt_Solvent>
?

> <LogVP>
0.0719

$$$$
101082
  -INDIGO-08031723152D

 21 20  0  0  0  0  0  0  0  0999 V2000
   -4.1569    2.4000    0.0000 O   0  0  0  0  0  0  0  0  0  0  0  0
   -4.1569    0.8000    0.0000 C   0  0  0  0  0  0  0  0  0  0  0  0
   -2.7712    0.0000    0.0000 O   0  0  0  0  0  0  0  0  0  0  0  0
   -1.3857    0.8000    0.0000 C   0  0  0  0  0  0  0  0  0  0  0  0
   -1.9979    2.2782    0.0000 H   0  0  0  0  0  0  0  0  0  0  0  0
   -0.7733    2.2782    0.0000 H   0  0  0  0  0  0  0  0  0  0  0  0
    0.0000    0.0000    0.0000 C   0  0  0  0  0  0  0  0  0  0  0  0
    0.6124   -1.4782    0.0000 H   0  0  0  0  0  0  0  0  0  0  0  0
   -0.6124   -1.4782    0.0000 H   0  0  0  0  0  0  0  0  0  0  0  0
    1.3857    0.8000    0.0000 C   0  0  0  0  0  0  0  0  0  0  0  0
    0.7733    2.2782    0.0000 H   0  0  0  0  0  0  0  0  0  0  0  0
    1.9979    2.2782    0.0000 H   0  0  0  0  0  0  0  0  0  0  0  0
    2.7712    0.0000    0.0000 C   0  0  0  0  0  0  0  0  0  0  0  0
    4.1569   -0.8000    0.0000 H   0  0  0  0  0  0  0  0  0  0  0  0
    4.1569    0.8000    0.0000 H   0  0  0  0  0  0  0  0  0  0  0  0
    2.7712   -1.6000    0.0000 H   0  0  0  0  0  0  0  0  0  0  0  0
   -5.5426    0.0000    0.0000 C   0  0  0  0  0  0  0  0  0  0  0  0
   -5.5426   -1.6000    0.0000 H   0  0  0  0  0  0  0  0  0  0  0  0
   -6.9281    0.8000    0.0000 C   0  0  0  0  0  0  0  0  0  0  0  0
   -8.3138    0.0000    0.0000 H   0  0  0  0  0  0  0  0  0  0  0  0
   -6.9281    2.4000    0.0000 H   0  0  0  0  0  0  0  0  0  0  0  0
  1  2  2  0  0  0  0
  2  3  1  0  0  0  0
  3  4  1  0  0  0  0
  4  5  1  0  0  0  0
  4  6  1  0  0  0  0
  4  7  1  0  0  0  0
  7  8  1  0  0  0  0
  7  9  1  0  0  0  0
  7 10  1  0  0  0  0
 10 11  1  0  0  0  0
 10 12  1  0  0  0  0
 10 13  1  0  0  0  0
 13 14  1  0  0  0  0
 13 15  1  0  0  0  0
 13 16  1  0  0  0  0
  2 17  1  0  0  0  0
 17 18  1  0  0  0  0
 17 19  2  0  0  0  0
 19 20  1  0  0  0  0
 19 21  1  0  0  0  0
M  END
> <ChemID>
101082

> <source_casrn>
141-32-2

> <CAS>
141-32-2

> <SMILES>
CCCCOC(=O)C=C

> <NAME>
BUTYL ACRYLATE

> <preferred_name>
Butyl acrylate

> <iupac>
butyl prop-2-enoate

> <MPID>
25712

> <dsstox_substance_id>
DTXSID6024676

> <Canonical_QSARr>
CCCCOC(=O)C=C

> <InChI_Code_QSARr>
InChI=1S/C7H12O2/c1-3-5-6-9-7(8)4-2/h4H,2-3,5-6H2,1H3

> <InChI Key_QSARr>
CQEYYJKEWSMYFG-UHFFFAOYSA-N

> <Salt_Solvent>
?

> <LogVP>
0.7366

$$$$
101086
  -INDIGO-08031723152D

 47 46  0  0  0  0  0  0  0  0999 V2000
    2.8892   -0.2527    0.0000 Si  0  0  0  0  0  0  0  0  0  0  0  0
    4.4647    0.0251    0.0000 O   0  0  0  0  0  0  0  0  0  0  0  0
    5.8504   -0.7749    0.0000 Si  0  0  0  0  0  0  0  0  0  0  0  0
    7.2361   -1.5749    0.0000 O   0  0  0  0  0  0  0  0  0  0  0  0
    8.8118   -1.2971    0.0000 Si  0  0  0  0  0  0  0  0  0  0  0  0
   10.3875   -1.5749    0.0000 C   0  0  0  0  0  0  0  0  0  0  0  0
   11.9632   -1.8528    0.0000 H   0  0  0  0  0  0  0  0  0  0  0  0
   10.9348   -3.0785    0.0000 H   0  0  0  0  0  0  0  0  0  0  0  0
   11.4159   -0.3492    0.0000 H   0  0  0  0  0  0  0  0  0  0  0  0
    8.8118   -2.8971    0.0000 C   0  0  0  0  0  0  0  0  0  0  0  0
    8.8118   -4.4971    0.0000 H   0  0  0  0  0  0  0  0  0  0  0  0
   10.1974   -3.6971    0.0000 H   0  0  0  0  0  0  0  0  0  0  0  0
    7.4261   -3.6971    0.0000 H   0  0  0  0  0  0  0  0  0  0  0  0
    8.8118    0.3029    0.0000 C   0  0  0  0  0  0  0  0  0  0  0  0
   10.1974    1.1029    0.0000 H   0  0  0  0  0  0  0  0  0  0  0  0
   10.1974   -0.4971    0.0000 H   0  0  0  0  0  0  0  0  0  0  0  0
    7.4261   -0.4971    0.0000 H   0  0  0  0  0  0  0  0  0  0  0  0
    6.3977    0.7286    0.0000 C   0  0  0  0  0  0  0  0  0  0  0  0
    6.6755    2.3042    0.0000 H   0  0  0  0  0  0  0  0  0  0  0  0
    5.1720    1.7570    0.0000 H   0  0  0  0  0  0  0  0  0  0  0  0
    7.9012    1.2758    0.0000 H   0  0  0  0  0  0  0  0  0  0  0  0
    5.0504   -2.1606    0.0000 C   0  0  0  0  0  0  0  0  0  0  0  0
    5.8504   -3.5462    0.0000 H   0  0  0  0  0  0  0  0  0  0  0  0
    6.6261   -2.4384    0.0000 H   0  0  0  0  0  0  0  0  0  0  0  0
    4.0220   -0.9349    0.0000 H   0  0  0  0  0  0  0  0  0  0  0  0
    1.3857   -0.8000    0.0000 O   0  0  0  0  0  0  0  0  0  0  0  0
    0.0000    0.0000    0.0000 Si  0  0  0  0  0  0  0  0  0  0  0  0
   -1.5035    0.5472    0.0000 C   0  0  0  0  0  0  0  0  0  0  0  0
   -3.0070    1.0945    0.0000 H   0  0  0  0  0  0  0  0  0  0  0  0
   -2.7292   -0.4812    0.0000 H   0  0  0  0  0  0  0  0  0  0  0  0
   -1.7813    2.1229    0.0000 H   0  0  0  0  0  0  0  0  0  0  0  0
    0.8000    1.3856    0.0000 C   0  0  0  0  0  0  0  0  0  0  0  0
    1.6000    2.7713    0.0000 H   0  0  0  0  0  0  0  0  0  0  0  0
    0.0000    2.7713    0.0000 H   0  0  0  0  0  0  0  0  0  0  0  0
   -0.7999    1.3856    0.0000 H   0  0  0  0  0  0  0  0  0  0  0  0
   -0.7999   -1.3857    0.0000 C   0  0  0  0  0  0  0  0  0  0  0  0
   -1.6001   -2.7712    0.0000 H   0  0  0  0  0  0  0  0  0  0  0  0
    0.0000   -2.7712    0.0000 H   0  0  0  0  0  0  0  0  0  0  0  0
   -2.4001   -1.3857    0.0000 H   0  0  0  0  0  0  0  0  0  0  0  0
    2.8892   -1.8528    0.0000 C   0  0  0  0  0  0  0  0  0  0  0  0
    2.6112   -3.4285    0.0000 H   0  0  0  0  0  0  0  0  0  0  0  0
    1.3857   -2.4000    0.0000 H   0  0  0  0  0  0  0  0  0  0  0  0
    4.1148   -2.8813    0.0000 H   0  0  0  0  0  0  0  0  0  0  0  0
    2.6112    1.3229    0.0000 C   0  0  0  0  0  0  0  0  0  0  0  0
    3.6399    2.5486    0.0000 H   0  0  0  0  0  0  0  0  0  0  0  0
    4.1870    1.0451    0.0000 H   0  0  0  0  0  0  0  0  0  0  0  0
    1.3857    0.2945    0.0000 H   0  0  0  0  0  0  0  0  0  0  0  0
  1  2  1  0  0  0  0
  2  3  1  0  0  0  0
  3  4  1  0  0  0  0
  4  5  1  0  0  0  0
  5  6  1  0  0  0  0
  6  7  1  0  0  0  0
  6  8  1  0  0  0  0
  6  9  1  0  0  0  0
  5 10  1  0  0  0  0
 10 11  1  0  0  0  0
 10 12  1  0  0  0  0
 10 13  1  0  0  0  0
  5 14  1  0  0  0  0
 14 15  1  0  0  0  0
 14 16  1  0  0  0  0
 14 17  1  0  0  0  0
  3 18  1  0  0  0  0
 18 19  1  0  0  0  0
 18 20  1  0  0  0  0
 18 21  1  0  0  0  0
  3 22  1  0  0  0  0
 22 23  1  0  0  0  0
 22 24  1  0  0  0  0
 22 25  1  0  0  0  0
  1 26  1  0  0  0  0
 26 27  1  0  0  0  0
 27 28  1  0  0  0  0
 28 29  1  0  0  0  0
 28 30  1  0  0  0  0
 28 31  1  0  0  0  0
 27 32  1  0  0  0  0
 32 33  1  0  0  0  0
 32 34  1  0  0  0  0
 32 35  1  0  0  0  0
 27 36  1  0  0  0  0
 36 37  1  0  0  0  0
 36 38  1  0  0  0  0
 36 39  1  0  0  0  0
  1 40  1  0  0  0  0
 40 41  1  0  0  0  0
 40 42  1  0  0  0  0
 40 43  1  0  0  0  0
  1 44  1  0  0  0  0
 44 45  1  0  0  0  0
 44 46  1  0  0  0  0
 44 47  1  0  0  0  0
M  END
> <ChemID>
101086

> <source_casrn>
141-62-8

> <CAS>
141-62-8

> <SMILES>
C[Si](C)(C)O[Si](C)(C)O[Si](C)(C)O[Si](C)(C)C

> <NAME>
DECAMETHYLTETRASILOXANE

> <preferred_name>
Decamethyltetrasiloxane

> <iupac>
decamethyltetrasiloxane

> <MPID>
25716

> <dsstox_substance_id>
DTXSID2044551

> <Canonical_QSARr>
C[Si](C)(C)O[Si](C)(C)O[Si](C)(C)O[Si](C)(C)C

> <InChI_Code_QSARr>
InChI=1S/C10H30O3Si4/c1-14(2,3)11-16(7,8)13-17(9,10)12-15(4,5)6/h1-10H3

> <InChI Key_QSARr>
YFCGDEUVHLPRCZ-UHFFFAOYSA-N

> <Salt_Solvent>
?

> <LogVP>
-0.426

$$$$
101090
  -INDIGO-08031723152D

 17 16  0  0  0  0  0  0  0  0999 V2000
    4.0000    1.3856    0.0000 C   0  0  0  0  0  0  0  0  0  0  0  0
    5.6000    1.3856    0.0000 H   0  0  0  0  0  0  0  0  0  0  0  0
    4.8001    2.7713    0.0000 H   0  0  0  0  0  0  0  0  0  0  0  0
    4.8001    0.0000    0.0000 H   0  0  0  0  0  0  0  0  0  0  0  0
    2.4000    1.3856    0.0000 C   0  0  0  0  0  0  0  0  0  0  0  0
    1.6001    0.0000    0.0000 C   0  0  0  0  0  0  0  0  0  0  0  0
    2.4000   -1.3856    0.0000 H   0  0  0  0  0  0  0  0  0  0  0  0
    0.0001    0.0000    0.0000 C   0  0  0  0  0  0  0  0  0  0  0  0
   -0.8000    1.3856    0.0000 C   0  0  0  0  0  0  0  0  0  0  0  0
   -1.6001    2.7713    0.0000 H   0  0  0  0  0  0  0  0  0  0  0  0
   -2.4000    1.3856    0.0000 H   0  0  0  0  0  0  0  0  0  0  0  0
   -0.0001    2.7713    0.0000 H   0  0  0  0  0  0  0  0  0  0  0  0
   -0.8000   -1.3856    0.0000 C   0  0  0  0  0  0  0  0  0  0  0  0
   -1.5999   -2.7713    0.0000 H   0  0  0  0  0  0  0  0  0  0  0  0
    0.0001   -2.7713    0.0000 H   0  0  0  0  0  0  0  0  0  0  0  0
   -2.4000   -1.3856    0.0000 H   0  0  0  0  0  0  0  0  0  0  0  0
    1.6001    2.7713    0.0000 O   0  0  0  0  0  0  0  0  0  0  0  0
  1  2  1  0  0  0  0
  1  3  1  0  0  0  0
  1  4  1  0  0  0  0
  1  5  1  0  0  0  0
  5  6  1  0  0  0  0
  6  7  1  0  0  0  0
  6  8  2  0  0  0  0
  8  9  1  0  0  0  0
  9 10  1  0  0  0  0
  9 11  1  0  0  0  0
  9 12  1  0  0  0  0
  8 13  1  0  0  0  0
 13 14  1  0  0  0  0
 13 15  1  0  0  0  0
 13 16  1  0  0  0  0
  5 17  2  0  0  0  0
M  END
> <ChemID>
101090

> <source_casrn>
141-79-7

> <CAS>
141-79-7

> <SMILES>
CC(C)=CC(C)=O

> <NAME>
MESITYL OXIDE

> <preferred_name>
4-Methylpent-3-en-2-one

> <iupac>
4-methylpent-3-en-2-one

> <MPID>
25720

> <dsstox_substance_id>
DTXSID1029170

> <Canonical_QSARr>
CC(C)=CC(C)=O

> <InChI_Code_QSARr>
InChI=1S/C6H10O/c1-5(2)4-6(3)7/h4H,1-3H3

> <InChI Key_QSARr>
SHOJXDKTYKFBRD-UHFFFAOYSA-N

> <Salt_Solvent>
?

> <LogVP>
0.9143

$$$$
101094
  -INDIGO-08031723152D

 11 10  0  0  0  0  0  0  0  0999 V2000
    1.3856    2.4000    0.0000 Cl  0  0  0  0  0  0  0  0  0  0  0  0
    1.3856    0.8000    0.0000 C   0  0  0  0  0  0  0  0  0  0  0  0
    2.7713    1.6000    0.0000 H   0  0  0  0  0  0  0  0  0  0  0  0
    2.7713    0.0000    0.0000 H   0  0  0  0  0  0  0  0  0  0  0  0
    0.0000    0.0000    0.0000 C   0  0  0  0  0  0  0  0  0  0  0  0
    0.6123   -1.4782    0.0000 H   0  0  0  0  0  0  0  0  0  0  0  0
   -0.6123   -1.4782    0.0000 H   0  0  0  0  0  0  0  0  0  0  0  0
   -1.3856    0.8000    0.0000 C   0  0  0  0  0  0  0  0  0  0  0  0
   -2.7713    1.6000    0.0000 H   0  0  0  0  0  0  0  0  0  0  0  0
   -2.7713    0.0000    0.0000 H   0  0  0  0  0  0  0  0  0  0  0  0
   -1.3856    2.4000    0.0000 Cl  0  0  0  0  0  0  0  0  0  0  0  0
  1  2  1  0  0  0  0
  2  3  1  0  0  0  0
  2  4  1  0  0  0  0
  2  5  1  0  0  0  0
  5  6  1  0  0  0  0
  5  7  1  0  0  0  0
  5  8  1  0  0  0  0
  8  9  1  0  0  0  0
  8 10  1  0  0  0  0
  8 11  1  0  0  0  0
M  END
> <ChemID>
101094

> <source_casrn>
142-28-9

> <CAS>
142-28-9

> <SMILES>
ClCCCCl

> <NAME>
1,3-DICHLOROPROPANE

> <preferred_name>
1,3-Dichloropropane

> <iupac>
1,3-dichloropropane

> <MPID>
25724

> <dsstox_substance_id>
DTXSID6022004

> <Canonical_QSARr>
ClCCCCl

> <InChI_Code_QSARr>
InChI=1S/C3H6Cl2/c4-2-1-3-5/h1-3H2

> <InChI Key_QSARr>
YHRUOJUYPBUZOS-UHFFFAOYSA-N

> <Salt_Solvent>
?

> <LogVP>
1.2591

$$$$
101098
  -INDIGO-08031723152D

 23 22  0  0  0  0  0  0  0  0999 V2000
    2.7712    0.0000    0.0000 C   0  0  0  0  0  0  0  0  0  0  0  0
    3.3836   -1.4782    0.0000 H   0  0  0  0  0  0  0  0  0  0  0  0
    2.1589   -1.4782    0.0000 H   0  0  0  0  0  0  0  0  0  0  0  0
    1.3856    0.8000    0.0000 C   0  0  0  0  0  0  0  0  0  0  0  0
    0.7734    2.2782    0.0000 H   0  0  0  0  0  0  0  0  0  0  0  0
    1.9979    2.2782    0.0000 H   0  0  0  0  0  0  0  0  0  0  0  0
    0.0001    0.0000    0.0000 C   0  0  0  0  0  0  0  0  0  0  0  0
    0.6122   -1.4782    0.0000 H   0  0  0  0  0  0  0  0  0  0  0  0
   -0.6122   -1.4782    0.0000 H   0  0  0  0  0  0  0  0  0  0  0  0
   -1.3856    0.8000    0.0000 C   0  0  0  0  0  0  0  0  0  0  0  0
   -1.9979    2.2782    0.0000 H   0  0  0  0  0  0  0  0  0  0  0  0
   -0.7734    2.2782    0.0000 H   0  0  0  0  0  0  0  0  0  0  0  0
   -2.7712    0.0000    0.0000 C   0  0  0  0  0  0  0  0  0  0  0  0
   -2.1589   -1.4782    0.0000 H   0  0  0  0  0  0  0  0  0  0  0  0
   -3.3836   -1.4782    0.0000 H   0  0  0  0  0  0  0  0  0  0  0  0
   -4.1569    0.8000    0.0000 C   0  0  0  0  0  0  0  0  0  0  0  0
   -5.5426    1.6000    0.0000 H   0  0  0  0  0  0  0  0  0  0  0  0
   -5.5426    0.0000    0.0000 H   0  0  0  0  0  0  0  0  0  0  0  0
   -4.1569    2.4000    0.0000 H   0  0  0  0  0  0  0  0  0  0  0  0
    4.1569    0.8000    0.0000 C   0  0  0  0  0  0  0  0  0  0  0  0
    5.5426    1.6000    0.0000 H   0  0  0  0  0  0  0  0  0  0  0  0
    5.5426    0.0000    0.0000 H   0  0  0  0  0  0  0  0  0  0  0  0
    4.1569    2.4000    0.0000 H   0  0  0  0  0  0  0  0  0  0  0  0
  1  2  1  0  0  0  0
  1  3  1  0  0  0  0
  1  4  1  0  0  0  0
  4  5  1  0  0  0  0
  4  6  1  0  0  0  0
  4  7  1  0  0  0  0
  7  8  1  0  0  0  0
  7  9  1  0  0  0  0
  7 10  1  0  0  0  0
 10 11  1  0  0  0  0
 10 12  1  0  0  0  0
 10 13  1  0  0  0  0
 13 14  1  0  0  0  0
 13 15  1  0  0  0  0
 13 16  1  0  0  0  0
 16 17  1  0  0  0  0
 16 18  1  0  0  0  0
 16 19  1  0  0  0  0
  1 20  1  0  0  0  0
 20 21  1  0  0  0  0
 20 22  1  0  0  0  0
 20 23  1  0  0  0  0
M  END
> <ChemID>
101098

> <source_casrn>
142-82-5

> <CAS>
142-82-5

> <SMILES>
CCCCCCC

> <NAME>
N-HEPTANE

> <preferred_name>
Heptane

> <iupac>
heptane

> <MPID>
25728

> <dsstox_substance_id>
DTXSID6024127

> <Canonical_QSARr>
CCCCCCC

> <InChI_Code_QSARr>
InChI=1S/C7H16/c1-3-5-7-6-4-2/h3-7H2,1-2H3

> <InChI Key_QSARr>
IMNFDUFMRHMDMM-UHFFFAOYSA-N

> <Salt_Solvent>
?

> <LogVP>
1.6628

$$$$
101102
  -INDIGO-08031723152D

 27 26  0  0  0  0  0  0  0  0999 V2000
    2.7714   -0.0000    0.0000 C   0  0  0  0  0  0  0  0  0  0  0  0
    4.1569   -0.8000    0.0000 H   0  0  0  0  0  0  0  0  0  0  0  0
    4.1569    0.8000    0.0000 H   0  0  0  0  0  0  0  0  0  0  0  0
    2.7714   -1.6000    0.0000 H   0  0  0  0  0  0  0  0  0  0  0  0
    1.3856    0.8000    0.0000 C   0  0  0  0  0  0  0  0  0  0  0  0
    0.7733    2.2782    0.0000 H   0  0  0  0  0  0  0  0  0  0  0  0
    1.9980    2.2782    0.0000 H   0  0  0  0  0  0  0  0  0  0  0  0
    0.0001   -0.0000    0.0000 C   0  0  0  0  0  0  0  0  0  0  0  0
    0.6122   -1.4782    0.0000 H   0  0  0  0  0  0  0  0  0  0  0  0
   -0.6122   -1.4782    0.0000 H   0  0  0  0  0  0  0  0  0  0  0  0
   -1.3856    0.8000    0.0000 C   0  0  0  0  0  0  0  0  0  0  0  0
   -1.9980    2.2782    0.0000 H   0  0  0  0  0  0  0  0  0  0  0  0
   -0.7733    2.2782    0.0000 H   0  0  0  0  0  0  0  0  0  0  0  0
   -2.7712   -0.0000    0.0000 O   0  0  0  0  0  0  0  0  0  0  0  0
   -4.1569    0.8000    0.0000 C   0  0  0  0  0  0  0  0  0  0  0  0
   -4.7692    2.2782    0.0000 H   0  0  0  0  0  0  0  0  0  0  0  0
   -3.5446    2.2782    0.0000 H   0  0  0  0  0  0  0  0  0  0  0  0
   -5.5425   -0.0000    0.0000 C   0  0  0  0  0  0  0  0  0  0  0  0
   -4.9304   -1.4782    0.0000 H   0  0  0  0  0  0  0  0  0  0  0  0
   -6.1548   -1.4782    0.0000 H   0  0  0  0  0  0  0  0  0  0  0  0
   -6.9282    0.8000    0.0000 C   0  0  0  0  0  0  0  0  0  0  0  0
   -7.5405    2.2782    0.0000 H   0  0  0  0  0  0  0  0  0  0  0  0
   -6.3159    2.2782    0.0000 H   0  0  0  0  0  0  0  0  0  0  0  0
   -8.3137   -0.0000    0.0000 C   0  0  0  0  0  0  0  0  0  0  0  0
   -9.6995   -0.8000    0.0000 H   0  0  0  0  0  0  0  0  0  0  0  0
   -9.6995    0.8000    0.0000 H   0  0  0  0  0  0  0  0  0  0  0  0
   -8.3137   -1.6000    0.0000 H   0  0  0  0  0  0  0  0  0  0  0  0
  1  2  1  0  0  0  0
  1  3  1  0  0  0  0
  1  4  1  0  0  0  0
  1  5  1  0  0  0  0
  5  6  1  0  0  0  0
  5  7  1  0  0  0  0
  5  8  1  0  0  0  0
  8  9  1  0  0  0  0
  8 10  1  0  0  0  0
  8 11  1  0  0  0  0
 11 12  1  0  0  0  0
 11 13  1  0  0  0  0
 11 14  1  0  0  0  0
 14 15  1  0  0  0  0
 15 16  1  0  0  0  0
 15 17  1  0  0  0  0
 15 18  1  0  0  0  0
 18 19  1  0  0  0  0
 18 20  1  0  0  0  0
 18 21  1  0  0  0  0
 21 22  1  0  0  0  0
 21 23  1  0  0  0  0
 21 24  1  0  0  0  0
 24 25  1  0  0  0  0
 24 26  1  0  0  0  0
 24 27  1  0  0  0  0
M  END
> <ChemID>
101102

> <source_casrn>
142-96-1

> <CAS>
142-96-1

> <SMILES>
CCCCOCCCC

> <NAME>
DI-N-BUTYL ETHER

> <preferred_name>
Butyl ether

> <iupac>
1-butoxybutane

> <MPID>
25732

> <dsstox_substance_id>
DTXSID1022007

> <Canonical_QSARr>
CCCCOCCCC

> <InChI_Code_QSARr>
InChI=1S/C8H18O/c1-3-5-7-9-8-6-4-2/h3-8H2,1-2H3

> <InChI Key_QSARr>
DURPTKYDGMDSBL-UHFFFAOYSA-N

> <Salt_Solvent>
?

> <LogVP>
0.7789

$$$$
101106
  -INDIGO-08031723152D

 38 37  0  0  0  0  0  0  0  0999 V2000
    6.9282   -0.8000    0.0000 C   0  0  0  0  0  0  0  0  0  0  0  0
    8.3138   -1.6000    0.0000 H   0  0  0  0  0  0  0  0  0  0  0  0
    8.3138    0.0000    0.0000 H   0  0  0  0  0  0  0  0  0  0  0  0
    5.5426    0.0000    0.0000 C   0  0  0  0  0  0  0  0  0  0  0  0
    6.1548    1.4782    0.0000 H   0  0  0  0  0  0  0  0  0  0  0  0
    4.9302    1.4782    0.0000 H   0  0  0  0  0  0  0  0  0  0  0  0
    4.1570   -0.8000    0.0000 C   0  0  0  0  0  0  0  0  0  0  0  0
    3.5446   -2.2782    0.0000 H   0  0  0  0  0  0  0  0  0  0  0  0
    4.7692   -2.2782    0.0000 H   0  0  0  0  0  0  0  0  0  0  0  0
    2.7712    0.0000    0.0000 C   0  0  0  0  0  0  0  0  0  0  0  0
    3.3836    1.4782    0.0000 H   0  0  0  0  0  0  0  0  0  0  0  0
    2.1590    1.4782    0.0000 H   0  0  0  0  0  0  0  0  0  0  0  0
    1.3856   -0.8000    0.0000 C   0  0  0  0  0  0  0  0  0  0  0  0
    0.7735   -2.2782    0.0000 H   0  0  0  0  0  0  0  0  0  0  0  0
    1.9980   -2.2782    0.0000 H   0  0  0  0  0  0  0  0  0  0  0  0
   -0.0000    0.0000    0.0000 C   0  0  0  0  0  0  0  0  0  0  0  0
    0.6124    1.4782    0.0000 H   0  0  0  0  0  0  0  0  0  0  0  0
   -0.6124    1.4782    0.0000 H   0  0  0  0  0  0  0  0  0  0  0  0
   -1.3856   -0.8000    0.0000 C   0  0  0  0  0  0  0  0  0  0  0  0
   -1.9980   -2.2782    0.0000 H   0  0  0  0  0  0  0  0  0  0  0  0
   -0.7732   -2.2782    0.0000 H   0  0  0  0  0  0  0  0  0  0  0  0
   -2.7712    0.0000    0.0000 C   0  0  0  0  0  0  0  0  0  0  0  0
   -2.1591    1.4782    0.0000 H   0  0  0  0  0  0  0  0  0  0  0  0
   -3.3836    1.4782    0.0000 H   0  0  0  0  0  0  0  0  0  0  0  0
   -4.1568   -0.8000    0.0000 C   0  0  0  0  0  0  0  0  0  0  0  0
   -4.7692   -2.2782    0.0000 H   0  0  0  0  0  0  0  0  0  0  0  0
   -3.5447   -2.2782    0.0000 H   0  0  0  0  0  0  0  0  0  0  0  0
   -5.5427    0.0000    0.0000 C   0  0  0  0  0  0  0  0  0  0  0  0
   -4.9303    1.4782    0.0000 H   0  0  0  0  0  0  0  0  0  0  0  0
   -6.1548    1.4782    0.0000 H   0  0  0  0  0  0  0  0  0  0  0  0
   -6.9283   -0.8000    0.0000 C   0  0  0  0  0  0  0  0  0  0  0  0
   -7.5404   -2.2782    0.0000 H   0  0  0  0  0  0  0  0  0  0  0  0
   -6.3159   -2.2782    0.0000 H   0  0  0  0  0  0  0  0  0  0  0  0
   -8.3139    0.0000    0.0000 C   0  0  0  0  0  0  0  0  0  0  0  0
   -9.6995    0.8000    0.0000 H   0  0  0  0  0  0  0  0  0  0  0  0
   -9.6995   -0.8000    0.0000 H   0  0  0  0  0  0  0  0  0  0  0  0
   -8.3139    1.6000    0.0000 H   0  0  0  0  0  0  0  0  0  0  0  0
    6.9282   -2.4000    0.0000 Br  0  0  0  0  0  0  0  0  0  0  0  0
  1  2  1  0  0  0  0
  1  3  1  0  0  0  0
  1  4  1  0  0  0  0
  4  5  1  0  0  0  0
  4  6  1  0  0  0  0
  4  7  1  0  0  0  0
  7  8  1  0  0  0  0
  7  9  1  0  0  0  0
  7 10  1  0  0  0  0
 10 11  1  0  0  0  0
 10 12  1  0  0  0  0
 10 13  1  0  0  0  0
 13 14  1  0  0  0  0
 13 15  1  0  0  0  0
 13 16  1  0  0  0  0
 16 17  1  0  0  0  0
 16 18  1  0  0  0  0
 16 19  1  0  0  0  0
 19 20  1  0  0  0  0
 19 21  1  0  0  0  0
 19 22  1  0  0  0  0
 22 23  1  0  0  0  0
 22 24  1  0  0  0  0
 22 25  1  0  0  0  0
 25 26  1  0  0  0  0
 25 27  1  0  0  0  0
 25 28  1  0  0  0  0
 28 29  1  0  0  0  0
 28 30  1  0  0  0  0
 28 31  1  0  0  0  0
 31 32  1  0  0  0  0
 31 33  1  0  0  0  0
 31 34  1  0  0  0  0
 34 35  1  0  0  0  0
 34 36  1  0  0  0  0
 34 37  1  0  0  0  0
  1 38  1  0  0  0  0
M  END
> <ChemID>
101106

> <source_casrn>
143-15-7

> <CAS>
143-15-7

> <SMILES>
CCCCCCCCCCCCBr

> <NAME>
1-BROMO-N-DODECANE

> <preferred_name>
1-Bromododecane

> <iupac>
1-bromododecane

> <MPID>
25736

> <dsstox_substance_id>
DTXSID2044395

> <Canonical_QSARr>
CCCCCCCCCCCCBr

> <InChI_Code_QSARr>
InChI=1S/C12H25Br/c1-2-3-4-5-6-7-8-9-10-11-12-13/h2-12H2,1H3

> <InChI Key_QSARr>
PBLNBZIONSLZBU-UHFFFAOYSA-N

> <Salt_Solvent>
?

> <LogVP>
-2.4056

$$$$
101110
  -INDIGO-08031723152D

 28 27  0  0  0  0  0  0  0  0999 V2000
    1.6001   -0.0000    0.0000 C   0  0  0  0  0  0  0  0  0  0  0  0
    2.8694   -0.9740    0.0000 H   0  0  0  0  0  0  0  0  0  0  0  0
    1.8089   -1.5863    0.0000 H   0  0  0  0  0  0  0  0  0  0  0  0
    0.0000    0.0000    0.0000 C   0  0  0  0  0  0  0  0  0  0  0  0
   -1.6000    0.0000    0.0000 C   0  0  0  0  0  0  0  0  0  0  0  0
   -1.6000    1.6000    0.0000 H   0  0  0  0  0  0  0  0  0  0  0  0
   -3.1999    0.0000    0.0000 C   0  0  0  0  0  0  0  0  0  0  0  0
   -3.1999   -1.6000    0.0000 H   0  0  0  0  0  0  0  0  0  0  0  0
   -4.7757   -0.2779    0.0000 C   0  0  0  0  0  0  0  0  0  0  0  0
   -6.3514   -0.5557    0.0000 H   0  0  0  0  0  0  0  0  0  0  0  0
   -5.8041    0.9478    0.0000 H   0  0  0  0  0  0  0  0  0  0  0  0
   -5.3230   -1.7813    0.0000 H   0  0  0  0  0  0  0  0  0  0  0  0
   -3.1999    1.6000    0.0000 C   0  0  0  0  0  0  0  0  0  0  0  0
   -3.1999    3.2000    0.0000 H   0  0  0  0  0  0  0  0  0  0  0  0
   -4.5856    2.4000    0.0000 H   0  0  0  0  0  0  0  0  0  0  0  0
   -4.5856    0.8000    0.0000 H   0  0  0  0  0  0  0  0  0  0  0  0
   -1.6000   -1.6000    0.0000 O   0  0  0  0  0  0  0  0  0  0  0  0
   -2.8257   -2.6285    0.0000 H   0  0  0  0  0  0  0  0  0  0  0  0
    0.0000    1.6000    0.0000 C   0  0  0  0  0  0  0  0  0  0  0  0
    0.0000    3.2000    0.0000 H   0  0  0  0  0  0  0  0  0  0  0  0
    1.3856    2.4000    0.0000 H   0  0  0  0  0  0  0  0  0  0  0  0
   -1.2257    2.6285    0.0000 H   0  0  0  0  0  0  0  0  0  0  0  0
    0.0000   -1.6000    0.0000 C   0  0  0  0  0  0  0  0  0  0  0  0
    0.0000   -3.2000    0.0000 H   0  0  0  0  0  0  0  0  0  0  0  0
    1.2257   -2.6285    0.0000 H   0  0  0  0  0  0  0  0  0  0  0  0
   -1.2257   -2.6285    0.0000 H   0  0  0  0  0  0  0  0  0  0  0  0
    2.3999    1.3856    0.0000 O   0  0  0  0  0  0  0  0  0  0  0  0
    4.0000    1.3856    0.0000 H   0  0  0  0  0  0  0  0  0  0  0  0
  1  2  1  0  0  0  0
  1  3  1  0  0  0  0
  1  4  1  0  0  0  0
  4  5  1  0  0  0  0
  5  6  1  0  0  0  0
  5  7  1  0  0  0  0
  7  8  1  0  0  0  0
  7  9  1  0  0  0  0
  9 10  1  0  0  0  0
  9 11  1  0  0  0  0
  9 12  1  0  0  0  0
  7 13  1  0  0  0  0
 13 14  1  0  0  0  0
 13 15  1  0  0  0  0
 13 16  1  0  0  0  0
  5 17  1  0  0  0  0
 17 18  1  0  0  0  0
  4 19  1  0  0  0  0
 19 20  1  0  0  0  0
 19 21  1  0  0  0  0
 19 22  1  0  0  0  0
  4 23  1  0  0  0  0
 23 24  1  0  0  0  0
 23 25  1  0  0  0  0
 23 26  1  0  0  0  0
  1 27  1  0  0  0  0
 27 28  1  0  0  0  0
M  END
> <ChemID>
101110

> <source_casrn>
144-19-4

> <CAS>
144-19-4

> <SMILES>
CC(C)C(O)C(C)(C)CO

> <NAME>
2,2,4-TRIMETHYL-1,3-PENTANEDIOL

> <preferred_name>
2,2,4-Trimethyl-1,3-pentanediol

> <iupac>
2,2,4-trimethylpentane-1,3-diol

> <MPID>
25740

> <dsstox_substance_id>
DTXSID8027113

> <Canonical_QSARr>
CC(C)C(O)C(C)(C)CO

> <InChI_Code_QSARr>
InChI=1S/C8H18O2/c1-6(2)7(10)8(3,4)5-9/h6-7,9-10H,5H2,1-4H3

> <InChI Key_QSARr>
JCTXKRPTIMZBJT-UHFFFAOYSA-N

> <Salt_Solvent>
?

> <LogVP>
-2.3468

$$$$
101115
  -INDIGO-08031723152D

 21 23  0  0  0  0  0  0  0  0999 V2000
    1.5216    0.4944    0.0000 N   0  0  0  0  0  0  0  0  0  0  0  0
    2.0161    2.0161    0.0000 H   0  0  0  0  0  0  0  0  0  0  0  0
    2.4622   -0.8000    0.0000 C   0  0  0  0  0  0  0  0  0  0  0  0
    4.0622   -0.8000    0.0000 C   0  0  0  0  0  0  0  0  0  0  0  0
    5.0026    0.4944    0.0000 C   0  0  0  0  0  0  0  0  0  0  0  0
    4.5083    2.0161    0.0000 H   0  0  0  0  0  0  0  0  0  0  0  0
    6.5242   -0.0000    0.0000 S   0  0  0  0  0  0  0  0  0  0  0  0
    6.5242   -1.6000    0.0000 C   0  0  0  0  0  0  0  0  0  0  0  0
    7.8187   -2.5404    0.0000 H   0  0  0  0  0  0  0  0  0  0  0  0
    5.0026   -2.0944    0.0000 N   0  0  0  0  0  0  0  0  0  0  0  0
    1.5216   -2.0944    0.0000 N   0  0  0  0  0  0  0  0  0  0  0  0
   -0.0000   -1.6000    0.0000 C   0  0  0  0  0  0  0  0  0  0  0  0
   -0.0000   -0.0000    0.0000 C   0  0  0  0  0  0  0  0  0  0  0  0
   -1.3857    0.8000    0.0000 C   0  0  0  0  0  0  0  0  0  0  0  0
   -1.3857    2.4000    0.0000 H   0  0  0  0  0  0  0  0  0  0  0  0
   -2.7712   -0.0000    0.0000 C   0  0  0  0  0  0  0  0  0  0  0  0
   -4.1569    0.8000    0.0000 H   0  0  0  0  0  0  0  0  0  0  0  0
   -2.7712   -1.6000    0.0000 C   0  0  0  0  0  0  0  0  0  0  0  0
   -4.1569   -2.4000    0.0000 H   0  0  0  0  0  0  0  0  0  0  0  0
   -1.3857   -2.4000    0.0000 C   0  0  0  0  0  0  0  0  0  0  0  0
   -1.3857   -4.0000    0.0000 H   0  0  0  0  0  0  0  0  0  0  0  0
  1  2  1  0  0  0  0
  1  3  1  0  0  0  0
  3  4  1  0  0  0  0
  4  5  2  0  0  0  0
  5  6  1  0  0  0  0
  5  7  1  0  0  0  0
  7  8  1  0  0  0  0
  8  9  1  0  0  0  0
  8 10  2  0  0  0  0
 10  4  1  0  0  0  0
  3 11  2  0  0  0  0
 11 12  1  0  0  0  0
 12 13  1  0  0  0  0
 13  1  1  0  0  0  0
 13 14  2  0  0  0  0
 14 15  1  0  0  0  0
 14 16  1  0  0  0  0
 16 17  1  0  0  0  0
 16 18  2  0  0  0  0
 18 19  1  0  0  0  0
 18 20  1  0  0  0  0
 20 12  2  0  0  0  0
 20 21  1  0  0  0  0
M  END
> <ChemID>
101115

> <source_casrn>
148-79-8

> <CAS>
148-79-8

> <SMILES>
c1[n]c(c[s]1)-c1[nH]c2ccccc2[n]1

> <NAME>
THIABENDAZOLE

> <preferred_name>
Thiabendazole

> <iupac>
2-(1,3-thiazol-4-yl)-1H-benzimidazole

> <MPID>
25744

> <dsstox_substance_id>
DTXSID0021337

> <Canonical_QSARr>
c1[n]c(c[s]1)-c1[nH]c2ccccc2[n]1

> <InChI_Code_QSARr>
InChI=1S/C10H7N3S/c1-2-4-8-7(3-1)12-10(13-8)9-5-14-6-11-9/h1-6H,(H,12,13)

> <InChI Key_QSARr>
WJCNZQLZVWNLKY-UHFFFAOYSA-N

> <Salt_Solvent>
?

> <LogVP>
-8.3979

$$$$
101119
  -INDIGO-08031723152D

 25 24  0  0  0  0  0  0  0  0999 V2000
   -2.4000    1.3856    0.0000 B   0  0  0  0  0  0  0  0  0  0  0  0
   -3.2000    2.7713    0.0000 O   0  0  0  0  0  0  0  0  0  0  0  0
   -2.4000    4.1570    0.0000 C   0  0  0  0  0  0  0  0  0  0  0  0
   -0.9218    3.5447    0.0000 H   0  0  0  0  0  0  0  0  0  0  0  0
   -0.9218    4.7693    0.0000 H   0  0  0  0  0  0  0  0  0  0  0  0
   -3.2000    5.5426    0.0000 C   0  0  0  0  0  0  0  0  0  0  0  0
   -3.9999    6.9282    0.0000 H   0  0  0  0  0  0  0  0  0  0  0  0
   -2.4000    6.9282    0.0000 H   0  0  0  0  0  0  0  0  0  0  0  0
   -4.8001    5.5426    0.0000 H   0  0  0  0  0  0  0  0  0  0  0  0
   -3.2000   -0.0000    0.0000 O   0  0  0  0  0  0  0  0  0  0  0  0
   -4.8001   -0.0000    0.0000 C   0  0  0  0  0  0  0  0  0  0  0  0
   -6.0693    0.9740    0.0000 H   0  0  0  0  0  0  0  0  0  0  0  0
   -5.0089    1.5863    0.0000 H   0  0  0  0  0  0  0  0  0  0  0  0
   -5.6000   -1.3857    0.0000 C   0  0  0  0  0  0  0  0  0  0  0  0
   -6.4000   -2.7713    0.0000 H   0  0  0  0  0  0  0  0  0  0  0  0
   -7.2000   -1.3857    0.0000 H   0  0  0  0  0  0  0  0  0  0  0  0
   -4.8001   -2.7713    0.0000 H   0  0  0  0  0  0  0  0  0  0  0  0
   -0.8000    1.3856    0.0000 O   0  0  0  0  0  0  0  0  0  0  0  0
   -0.0001   -0.0000    0.0000 C   0  0  0  0  0  0  0  0  0  0  0  0
   -0.2089   -1.5864    0.0000 H   0  0  0  0  0  0  0  0  0  0  0  0
   -1.2693   -0.9741    0.0000 H   0  0  0  0  0  0  0  0  0  0  0  0
    1.6000   -0.0000    0.0000 C   0  0  0  0  0  0  0  0  0  0  0  0
    3.2000   -0.0000    0.0000 H   0  0  0  0  0  0  0  0  0  0  0  0
    2.4000   -1.3857    0.0000 H   0  0  0  0  0  0  0  0  0  0  0  0
    2.4000    1.3856    0.0000 H   0  0  0  0  0  0  0  0  0  0  0  0
  1  2  1  0  0  0  0
  2  3  1  0  0  0  0
  3  4  1  0  0  0  0
  3  5  1  0  0  0  0
  3  6  1  0  0  0  0
  6  7  1  0  0  0  0
  6  8  1  0  0  0  0
  6  9  1  0  0  0  0
  1 10  1  0  0  0  0
 10 11  1  0  0  0  0
 11 12  1  0  0  0  0
 11 13  1  0  0  0  0
 11 14  1  0  0  0  0
 14 15  1  0  0  0  0
 14 16  1  0  0  0  0
 14 17  1  0  0  0  0
  1 18  1  0  0  0  0
 18 19  1  0  0  0  0
 19 20  1  0  0  0  0
 19 21  1  0  0  0  0
 19 22  1  0  0  0  0
 22 23  1  0  0  0  0
 22 24  1  0  0  0  0
 22 25  1  0  0  0  0
M  END
> <ChemID>
101119

> <source_casrn>
150-46-9

> <CAS>
150-46-9

> <SMILES>
CCOB(OCC)OCC

> <NAME>
TRIETHYL BORATE

> <preferred_name>
Triethyl borate

> <iupac>
C6H15BO3

> <MPID>
25748

> <dsstox_substance_id>
DTXSID2041674

> <Canonical_QSARr>
CCOB(OCC)OCC

> <InChI_Code_QSARr>
InChI=1S/C6H15BO3/c1-4-8-7(9-5-2)10-6-3/h4-6H2,1-3H3

> <InChI Key_QSARr>
AJSTXXYNEIHPMD-UHFFFAOYSA-N

> <Salt_Solvent>
?

> <LogVP>
1.2157

$$$$
101123
  -INDIGO-08031723152D

  8  7  0  0  0  0  0  0  0  0999 V2000
    0.8000    1.3856    0.0000 F   0  0  0  0  0  0  0  0  0  0  0  0
    0.0000    0.0000    0.0000 C   0  0  0  0  0  0  0  0  0  0  0  0
    1.6000   -0.0000    0.0000 F   0  0  0  0  0  0  0  0  0  0  0  0
    0.8000   -1.3856    0.0000 F   0  0  0  0  0  0  0  0  0  0  0  0
   -1.6000    0.0000    0.0000 C   0  0  0  0  0  0  0  0  0  0  0  0
   -3.2000    0.0000    0.0000 H   0  0  0  0  0  0  0  0  0  0  0  0
   -2.4000   -1.3856    0.0000 Cl  0  0  0  0  0  0  0  0  0  0  0  0
   -2.4000    1.3856    0.0000 Br  0  0  0  0  0  0  0  0  0  0  0  0
  1  2  1  0  0  0  0
  2  3  1  0  0  0  0
  2  4  1  0  0  0  0
  2  5  1  0  0  0  0
  5  6  1  0  0  0  0
  5  7  1  0  0  0  0
  5  8  1  0  0  0  0
M  END
> <ChemID>
101123

> <source_casrn>
151-67-7

> <CAS>
151-67-7

> <SMILES>
FC(F)(F)C(Cl)Br

> <NAME>
HALOTHANE

> <preferred_name>
Halothane

> <iupac>
2-bromo-2-chloro-1,1,1-trifluoroethane

> <MPID>
25752

> <dsstox_substance_id>
DTXSID4025371

> <Canonical_QSARr>
FC(F)(F)C(Cl)Br

> <InChI_Code_QSARr>
InChI=1S/C2HBrClF3/c3-1(4)2(5,6)7/h1H

> <InChI Key_QSARr>
BCQZXOMGPXTTIC-UHFFFAOYSA-N

> <Salt_Solvent>
?

> <LogVP>
2.48

$$$$
101129
  -INDIGO-08031723152D

 13 14  0  0  0  0  0  0  0  0999 V2000
    0.0000    0.0000    0.0000 C   0  0  0  0  0  0  0  0  0  0  0  0
    1.3857    0.8000    0.0000 C   0  0  0  0  0  0  0  0  0  0  0  0
    0.8384    2.3035    0.0000 H   0  0  0  0  0  0  0  0  0  0  0  0
    2.9613    1.0779    0.0000 H   0  0  0  0  0  0  0  0  0  0  0  0
    1.3857   -0.8000    0.0000 C   0  0  0  0  0  0  0  0  0  0  0  0
    2.9613   -1.0779    0.0000 H   0  0  0  0  0  0  0  0  0  0  0  0
    0.8384   -2.3035    0.0000 H   0  0  0  0  0  0  0  0  0  0  0  0
   -1.3857   -0.8000    0.0000 C   0  0  0  0  0  0  0  0  0  0  0  0
   -0.8384   -2.3035    0.0000 H   0  0  0  0  0  0  0  0  0  0  0  0
   -2.9613   -1.0779    0.0000 H   0  0  0  0  0  0  0  0  0  0  0  0
   -1.3857    0.8000    0.0000 C   0  0  0  0  0  0  0  0  0  0  0  0
   -2.9613    1.0779    0.0000 H   0  0  0  0  0  0  0  0  0  0  0  0
   -0.8384    2.3035    0.0000 H   0  0  0  0  0  0  0  0  0  0  0  0
  1  2  1  0  0  0  0
  2  3  1  0  0  0  0
  2  4  1  0  0  0  0
  2  5  1  0  0  0  0
  5  1  1  0  0  0  0
  5  6  1  0  0  0  0
  5  7  1  0  0  0  0
  1  8  1  0  0  0  0
  8  9  1  0  0  0  0
  8 10  1  0  0  0  0
  8 11  1  0  0  0  0
 11  1  1  0  0  0  0
 11 12  1  0  0  0  0
 11 13  1  0  0  0  0
M  END
> <ChemID>
101129

> <source_casrn>
157-40-4

> <CAS>
157-40-4

> <SMILES>
C1CC21CC2

> <NAME>
SPIROPENTANE

> <preferred_name>
Spiropentane

> <iupac>


> <MPID>
25756

> <dsstox_substance_id>
DTXSID10166181

> <Canonical_QSARr>
C1CC21CC2

> <InChI_Code_QSARr>
InChI=1S/C5H8/c1-2-5(1)3-4-5/h1-4H2

> <InChI Key_QSARr>
OGNAOIGAPPSUMG-UHFFFAOYSA-N

> <Salt_Solvent>
?

> <LogVP>
2.6606

$$$$
101135
  -INDIGO-08031723152D

 32 36  0  0  0  0  0  0  0  0999 V2000
   -1.6001    0.0001    0.0000 C   0  0  0  0  0  0  0  0  0  0  0  0
   -2.4001   -1.3857    0.0000 C   0  0  0  0  0  0  0  0  0  0  0  0
   -1.6001   -2.7713    0.0000 C   0  0  0  0  0  0  0  0  0  0  0  0
   -2.4001   -4.1569    0.0000 C   0  0  0  0  0  0  0  0  0  0  0  0
   -1.6001   -5.5426    0.0000 H   0  0  0  0  0  0  0  0  0  0  0  0
   -4.0000   -4.1569    0.0000 C   0  0  0  0  0  0  0  0  0  0  0  0
   -4.8000   -5.5426    0.0000 H   0  0  0  0  0  0  0  0  0  0  0  0
   -4.8000   -2.7713    0.0000 C   0  0  0  0  0  0  0  0  0  0  0  0
   -6.4000   -2.7713    0.0000 H   0  0  0  0  0  0  0  0  0  0  0  0
   -4.0000   -1.3857    0.0000 C   0  0  0  0  0  0  0  0  0  0  0  0
   -4.8000    0.0001    0.0000 H   0  0  0  0  0  0  0  0  0  0  0  0
    0.0001   -2.7713    0.0000 C   0  0  0  0  0  0  0  0  0  0  0  0
    0.8001   -1.3857    0.0000 C   0  0  0  0  0  0  0  0  0  0  0  0
    2.4000   -1.3857    0.0000 C   0  0  0  0  0  0  0  0  0  0  0  0
    3.2000   -2.7713    0.0000 C   0  0  0  0  0  0  0  0  0  0  0  0
    4.8000   -2.7713    0.0000 H   0  0  0  0  0  0  0  0  0  0  0  0
    2.4000   -4.1569    0.0000 C   0  0  0  0  0  0  0  0  0  0  0  0
    3.2000   -5.5426    0.0000 H   0  0  0  0  0  0  0  0  0  0  0  0
    0.8001   -4.1569    0.0000 C   0  0  0  0  0  0  0  0  0  0  0  0
    0.0001   -5.5426    0.0000 H   0  0  0  0  0  0  0  0  0  0  0  0
    3.2000    0.0001    0.0000 C   0  0  0  0  0  0  0  0  0  0  0  0
    4.8000    0.0001    0.0000 H   0  0  0  0  0  0  0  0  0  0  0  0
    2.4000    1.3857    0.0000 C   0  0  0  0  0  0  0  0  0  0  0  0
    3.2000    2.7713    0.0000 H   0  0  0  0  0  0  0  0  0  0  0  0
    0.8001    1.3857    0.0000 C   0  0  0  0  0  0  0  0  0  0  0  0
    0.0001    2.7713    0.0000 C   0  0  0  0  0  0  0  0  0  0  0  0
    0.8001    4.1569    0.0000 H   0  0  0  0  0  0  0  0  0  0  0  0
   -1.6001    2.7713    0.0000 C   0  0  0  0  0  0  0  0  0  0  0  0
   -2.4001    4.1569    0.0000 H   0  0  0  0  0  0  0  0  0  0  0  0
   -2.4001    1.3857    0.0000 C   0  0  0  0  0  0  0  0  0  0  0  0
   -4.0000    1.3857    0.0000 H   0  0  0  0  0  0  0  0  0  0  0  0
    0.0001    0.0001    0.0000 C   0  0  0  0  0  0  0  0  0  0  0  0
  1  2  1  0  0  0  0
  2  3  1  0  0  0  0
  3  4  2  0  0  0  0
  4  5  1  0  0  0  0
  4  6  1  0  0  0  0
  6  7  1  0  0  0  0
  6  8  2  0  0  0  0
  8  9  1  0  0  0  0
  8 10  1  0  0  0  0
 10  2  2  0  0  0  0
 10 11  1  0  0  0  0
  3 12  1  0  0  0  0
 12 13  1  0  0  0  0
 13 14  2  0  0  0  0
 14 15  1  0  0  0  0
 15 16  1  0  0  0  0
 15 17  2  0  0  0  0
 17 18  1  0  0  0  0
 17 19  1  0  0  0  0
 19 12  2  0  0  0  0
 19 20  1  0  0  0  0
 14 21  1  0  0  0  0
 21 22  1  0  0  0  0
 21 23  2  0  0  0  0
 23 24  1  0  0  0  0
 23 25  1  0  0  0  0
 25 26  2  0  0  0  0
 26 27  1  0  0  0  0
 26 28  1  0  0  0  0
 28 29  1  0  0  0  0
 28 30  2  0  0  0  0
 30  1  1  0  0  0  0
 30 31  1  0  0  0  0
 25 32  1  0  0  0  0
 32  1  2  0  0  0  0
 32 13  1  0  0  0  0
M  END
> <ChemID>
101135

> <source_casrn>
192-97-2

> <CAS>
192-97-2

> <SMILES>
c1cc2cccc3c2c2c(cccc21)c1ccccc31

> <NAME>
BENZO(E)PYRENE

> <preferred_name>
Benzo(e)pyrene

> <iupac>
benzo[e]pyrene

> <MPID>
25760

> <dsstox_substance_id>
DTXSID3023764

> <Canonical_QSARr>
c1cc2cccc3c2c2c(cccc21)c1ccccc31

> <InChI_Code_QSARr>
InChI=1S/C20H12/c1-2-8-16-15(7-1)17-9-3-5-13-11-12-14-6-4-10-18(16)20(14)19(13)17/h1-12H

> <InChI Key_QSARr>
TXVHTIQJNYSSKO-UHFFFAOYSA-N

> <Salt_Solvent>
?

> <LogVP>
-8.2441

$$$$
101139
  -INDIGO-08031723152D

 32 36  0  0  0  0  0  0  0  0999 V2000
   -0.0000   -0.0000    0.0000 C   0  0  0  0  0  0  0  0  0  0  0  0
   -1.5913   -0.1673    0.0000 C   0  0  0  0  0  0  0  0  0  0  0  0
   -2.3340    1.2498    0.0000 C   0  0  0  0  0  0  0  0  0  0  0  0
   -3.9334    1.2934    0.0000 H   0  0  0  0  0  0  0  0  0  0  0  0
   -1.5153    2.6245    0.0000 C   0  0  0  0  0  0  0  0  0  0  0  0
   -2.3153    4.0102    0.0000 H   0  0  0  0  0  0  0  0  0  0  0  0
    0.0845    2.6462    0.0000 C   0  0  0  0  0  0  0  0  0  0  0  0
    0.8465    4.0532    0.0000 H   0  0  0  0  0  0  0  0  0  0  0  0
    0.9405    1.2944    0.0000 C   0  0  0  0  0  0  0  0  0  0  0  0
    2.4622    0.8000    0.0000 C   0  0  0  0  0  0  0  0  0  0  0  0
    2.4622   -0.8000    0.0000 C   0  0  0  0  0  0  0  0  0  0  0  0
    0.9405   -1.2944    0.0000 C   0  0  0  0  0  0  0  0  0  0  0  0
    0.2897   -2.7561    0.0000 C   0  0  0  0  0  0  0  0  0  0  0  0
    1.2302   -4.0505    0.0000 H   0  0  0  0  0  0  0  0  0  0  0  0
   -1.3016   -2.9234    0.0000 C   0  0  0  0  0  0  0  0  0  0  0  0
   -1.9524   -4.3850    0.0000 H   0  0  0  0  0  0  0  0  0  0  0  0
   -2.2419   -1.6289    0.0000 C   0  0  0  0  0  0  0  0  0  0  0  0
   -3.8332   -1.7962    0.0000 H   0  0  0  0  0  0  0  0  0  0  0  0
    3.8478   -1.6000    0.0000 C   0  0  0  0  0  0  0  0  0  0  0  0
    3.8478   -3.2001    0.0000 H   0  0  0  0  0  0  0  0  0  0  0  0
    5.2335   -0.8000    0.0000 C   0  0  0  0  0  0  0  0  0  0  0  0
    5.2335    0.8000    0.0000 C   0  0  0  0  0  0  0  0  0  0  0  0
    6.6191    1.6001    0.0000 C   0  0  0  0  0  0  0  0  0  0  0  0
    6.6191    3.2000    0.0000 H   0  0  0  0  0  0  0  0  0  0  0  0
    8.0048    0.8000    0.0000 C   0  0  0  0  0  0  0  0  0  0  0  0
    9.3904    1.6001    0.0000 H   0  0  0  0  0  0  0  0  0  0  0  0
    8.0048   -0.8000    0.0000 C   0  0  0  0  0  0  0  0  0  0  0  0
    9.3904   -1.6000    0.0000 H   0  0  0  0  0  0  0  0  0  0  0  0
    6.6191   -1.6000    0.0000 C   0  0  0  0  0  0  0  0  0  0  0  0
    6.6191   -3.2001    0.0000 H   0  0  0  0  0  0  0  0  0  0  0  0
    3.8478    1.6001    0.0000 C   0  0  0  0  0  0  0  0  0  0  0  0
    3.8478    3.2000    0.0000 H   0  0  0  0  0  0  0  0  0  0  0  0
  1  2  2  0  0  0  0
  2  3  1  0  0  0  0
  3  4  1  0  0  0  0
  3  5  2  0  0  0  0
  5  6  1  0  0  0  0
  5  7  1  0  0  0  0
  7  8  1  0  0  0  0
  7  9  2  0  0  0  0
  9  1  1  0  0  0  0
  9 10  1  0  0  0  0
 10 11  1  0  0  0  0
 11 12  1  0  0  0  0
 12  1  1  0  0  0  0
 12 13  2  0  0  0  0
 13 14  1  0  0  0  0
 13 15  1  0  0  0  0
 15 16  1  0  0  0  0
 15 17  2  0  0  0  0
 17  2  1  0  0  0  0
 17 18  1  0  0  0  0
 11 19  2  0  0  0  0
 19 20  1  0  0  0  0
 19 21  1  0  0  0  0
 21 22  1  0  0  0  0
 22 23  2  0  0  0  0
 23 24  1  0  0  0  0
 23 25  1  0  0  0  0
 25 26  1  0  0  0  0
 25 27  2  0  0  0  0
 27 28  1  0  0  0  0
 27 29  1  0  0  0  0
 29 21  2  0  0  0  0
 29 30  1  0  0  0  0
 22 31  1  0  0  0  0
 31 10  2  0  0  0  0
 31 32  1  0  0  0  0
M  END
> <ChemID>
101139

> <source_casrn>
207-08-9

> <CAS>
207-08-9

> <SMILES>
c1c2-c3cccc4cccc(c43)-c2cc2ccccc21

> <NAME>
BENZO(K)FLUORANTHENE

> <preferred_name>
Benzo(k)fluoranthene

> <iupac>
benzo[k]fluoranthene

> <MPID>
25764

> <dsstox_substance_id>
DTXSID0023909

> <Canonical_QSARr>
c1c2-c3cccc4cccc(c43)-c2cc2ccccc21

> <InChI_Code_QSARr>
InChI=1S/C20H12/c1-2-6-15-12-19-17-10-4-8-13-7-3-9-16(20(13)17)18(19)11-14(15)5-1/h1-12H

> <InChI Key_QSARr>
HAXBIWFMXWRORI-UHFFFAOYSA-N

> <Salt_Solvent>
?

> <LogVP>
-9.0155

$$$$
101143
  -INDIGO-08031723152D

 30 33  0  0  0  0  0  0  0  0999 V2000
    0.0000    0.0000    0.0000 C   0  0  0  0  0  0  0  0  0  0  0  0
   -0.8000    1.3856    0.0000 C   0  0  0  0  0  0  0  0  0  0  0  0
    0.0000    2.7713    0.0000 H   0  0  0  0  0  0  0  0  0  0  0  0
   -2.4000    1.3856    0.0000 C   0  0  0  0  0  0  0  0  0  0  0  0
   -3.2000    2.7713    0.0000 H   0  0  0  0  0  0  0  0  0  0  0  0
   -3.2000    0.0000    0.0000 C   0  0  0  0  0  0  0  0  0  0  0  0
   -4.8000    0.0000    0.0000 C   0  0  0  0  0  0  0  0  0  0  0  0
   -5.6000    1.3856    0.0000 H   0  0  0  0  0  0  0  0  0  0  0  0
   -5.6000   -1.3856    0.0000 C   0  0  0  0  0  0  0  0  0  0  0  0
   -7.2000   -1.3856    0.0000 H   0  0  0  0  0  0  0  0  0  0  0  0
   -4.8000   -2.7713    0.0000 C   0  0  0  0  0  0  0  0  0  0  0  0
   -5.6000   -4.1569    0.0000 H   0  0  0  0  0  0  0  0  0  0  0  0
   -3.2000   -2.7713    0.0000 C   0  0  0  0  0  0  0  0  0  0  0  0
   -2.4000   -4.1569    0.0000 H   0  0  0  0  0  0  0  0  0  0  0  0
   -2.4000   -1.3856    0.0000 C   0  0  0  0  0  0  0  0  0  0  0  0
   -0.8000   -1.3856    0.0000 C   0  0  0  0  0  0  0  0  0  0  0  0
    0.0000   -2.7713    0.0000 C   0  0  0  0  0  0  0  0  0  0  0  0
   -0.8000   -4.1569    0.0000 H   0  0  0  0  0  0  0  0  0  0  0  0
    1.6000   -2.7713    0.0000 C   0  0  0  0  0  0  0  0  0  0  0  0
    2.4000   -4.1569    0.0000 H   0  0  0  0  0  0  0  0  0  0  0  0
    2.4000   -1.3856    0.0000 C   0  0  0  0  0  0  0  0  0  0  0  0
    1.6000    0.0000    0.0000 C   0  0  0  0  0  0  0  0  0  0  0  0
    2.4000    1.3856    0.0000 C   0  0  0  0  0  0  0  0  0  0  0  0
    1.6000    2.7713    0.0000 H   0  0  0  0  0  0  0  0  0  0  0  0
    4.0000    1.3856    0.0000 C   0  0  0  0  0  0  0  0  0  0  0  0
    4.8000    2.7713    0.0000 H   0  0  0  0  0  0  0  0  0  0  0  0
    4.8000    0.0000    0.0000 C   0  0  0  0  0  0  0  0  0  0  0  0
    6.4000    0.0000    0.0000 H   0  0  0  0  0  0  0  0  0  0  0  0
    4.0000   -1.3856    0.0000 C   0  0  0  0  0  0  0  0  0  0  0  0
    4.8000   -2.7713    0.0000 H   0  0  0  0  0  0  0  0  0  0  0  0
  1  2  1  0  0  0  0
  2  3  1  0  0  0  0
  2  4  2  0  0  0  0
  4  5  1  0  0  0  0
  4  6  1  0  0  0  0
  6  7  1  0  0  0  0
  7  8  1  0  0  0  0
  7  9  2  0  0  0  0
  9 10  1  0  0  0  0
  9 11  1  0  0  0  0
 11 12  1  0  0  0  0
 11 13  2  0  0  0  0
 13 14  1  0  0  0  0
 13 15  1  0  0  0  0
 15  6  2  0  0  0  0
 15 16  1  0  0  0  0
 16  1  1  0  0  0  0
 16 17  2  0  0  0  0
 17 18  1  0  0  0  0
 17 19  1  0  0  0  0
 19 20  1  0  0  0  0
 19 21  2  0  0  0  0
 21 22  1  0  0  0  0
 22  1  2  0  0  0  0
 22 23  1  0  0  0  0
 23 24  1  0  0  0  0
 23 25  2  0  0  0  0
 25 26  1  0  0  0  0
 25 27  1  0  0  0  0
 27 28  1  0  0  0  0
 27 29  2  0  0  0  0
 29 21  1  0  0  0  0
 29 30  1  0  0  0  0
M  END
> <ChemID>
101143

> <source_casrn>
218-01-9

> <CAS>
218-01-9

> <SMILES>
c1cc2c3ccccc3ccc2c2ccccc21

> <NAME>
CHRYSENE

> <preferred_name>
Chrysene

> <iupac>
chrysene

> <MPID>
25768

> <dsstox_substance_id>
DTXSID0022432

> <Canonical_QSARr>
c1cc2c3ccccc3ccc2c2ccccc21

> <InChI_Code_QSARr>
InChI=1S/C18H12/c1-3-7-15-13(5-1)9-11-18-16-8-4-2-6-14(16)10-12-17(15)18/h1-12H

> <InChI Key_QSARr>
WDECIBYCCFPHNR-UHFFFAOYSA-N

> <Salt_Solvent>
?

> <LogVP>
-8.2055

$$$$
101147
  -INDIGO-08031723152D

 27 30  0  0  0  0  0  0  0  0999 V2000
    0.8000    1.3856    0.0000 C   0  0  0  0  0  0  0  0  0  0  0  0
   -0.2707    2.5747    0.0000 S   0  0  0  0  0  0  0  0  0  0  0  0
   -1.7322    1.9239    0.0000 C   0  0  0  0  0  0  0  0  0  0  0  0
   -3.1940    2.5747    0.0000 C   0  0  0  0  0  0  0  0  0  0  0  0
   -3.3612    4.1659    0.0000 H   0  0  0  0  0  0  0  0  0  0  0  0
   -4.4885    1.6342    0.0000 C   0  0  0  0  0  0  0  0  0  0  0  0
   -5.9501    2.2850    0.0000 H   0  0  0  0  0  0  0  0  0  0  0  0
   -4.3211    0.0430    0.0000 C   0  0  0  0  0  0  0  0  0  0  0  0
   -5.6156   -0.8974    0.0000 H   0  0  0  0  0  0  0  0  0  0  0  0
   -2.8595   -0.6078    0.0000 C   0  0  0  0  0  0  0  0  0  0  0  0
   -2.6922   -2.1990    0.0000 H   0  0  0  0  0  0  0  0  0  0  0  0
   -1.5651    0.3327    0.0000 C   0  0  0  0  0  0  0  0  0  0  0  0
    0.0000    0.0000    0.0000 C   0  0  0  0  0  0  0  0  0  0  0  0
    0.8000   -1.3856    0.0000 C   0  0  0  0  0  0  0  0  0  0  0  0
    0.0000   -2.7713    0.0000 H   0  0  0  0  0  0  0  0  0  0  0  0
    2.4001   -1.3856    0.0000 C   0  0  0  0  0  0  0  0  0  0  0  0
    3.1999   -2.7713    0.0000 H   0  0  0  0  0  0  0  0  0  0  0  0
    3.1999    0.0000    0.0000 C   0  0  0  0  0  0  0  0  0  0  0  0
    2.4001    1.3856    0.0000 C   0  0  0  0  0  0  0  0  0  0  0  0
    3.1999    2.7713    0.0000 C   0  0  0  0  0  0  0  0  0  0  0  0
    2.4001    4.1569    0.0000 H   0  0  0  0  0  0  0  0  0  0  0  0
    4.7999    2.7713    0.0000 C   0  0  0  0  0  0  0  0  0  0  0  0
    5.6000    4.1569    0.0000 H   0  0  0  0  0  0  0  0  0  0  0  0
    5.6000    1.3856    0.0000 C   0  0  0  0  0  0  0  0  0  0  0  0
    7.2000    1.3856    0.0000 H   0  0  0  0  0  0  0  0  0  0  0  0
    4.7999    0.0000    0.0000 C   0  0  0  0  0  0  0  0  0  0  0  0
    5.6000   -1.3856    0.0000 H   0  0  0  0  0  0  0  0  0  0  0  0
  1  2  1  0  0  0  0
  2  3  1  0  0  0  0
  3  4  1  0  0  0  0
  4  5  1  0  0  0  0
  4  6  2  0  0  0  0
  6  7  1  0  0  0  0
  6  8  1  0  0  0  0
  8  9  1  0  0  0  0
  8 10  2  0  0  0  0
 10 11  1  0  0  0  0
 10 12  1  0  0  0  0
 12  3  2  0  0  0  0
 12 13  1  0  0  0  0
 13  1  1  0  0  0  0
 13 14  2  0  0  0  0
 14 15  1  0  0  0  0
 14 16  1  0  0  0  0
 16 17  1  0  0  0  0
 16 18  2  0  0  0  0
 18 19  1  0  0  0  0
 19  1  2  0  0  0  0
 19 20  1  0  0  0  0
 20 21  1  0  0  0  0
 20 22  2  0  0  0  0
 22 23  1  0  0  0  0
 22 24  1  0  0  0  0
 24 25  1  0  0  0  0
 24 26  2  0  0  0  0
 26 18  1  0  0  0  0
 26 27  1  0  0  0  0
M  END
> <ChemID>
101147

> <source_casrn>
239-35-0

> <CAS>
239-35-0

> <SMILES>
c1cccc2c3[s]c4ccccc4c3ccc21

> <NAME>
BENZO(B)NAPHTHO(2,1-D)THIOPHENE

> <preferred_name>
Benzo[b]naphtho[2,1-d]thiophene

> <iupac>
naphtho[1,2-b][1]benzothiole

> <MPID>
25772

> <dsstox_substance_id>
DTXSID8075205

> <Canonical_QSARr>
c1cccc2c3[s]c4ccccc4c3ccc21

> <InChI_Code_QSARr>
InChI=1S/C16H10S/c1-2-6-12-11(5-1)9-10-14-13-7-3-4-8-15(13)17-16(12)14/h1-10H

> <InChI Key_QSARr>
YEUHHUCOSQOCIX-UHFFFAOYSA-N

> <Salt_Solvent>
?

> <LogVP>
-6.9431

$$$$
101151
  -INDIGO-08031723152D

 15 16  0  0  0  0  0  0  0  0999 V2000
    1.5217    0.4944    0.0000 C   0  0  0  0  0  0  0  0  0  0  0  0
    2.0161    2.0161    0.0000 H   0  0  0  0  0  0  0  0  0  0  0  0
    2.4621   -0.8000    0.0000 C   0  0  0  0  0  0  0  0  0  0  0  0
    4.0621   -0.8000    0.0000 H   0  0  0  0  0  0  0  0  0  0  0  0
    1.5217   -2.0944    0.0000 O   0  0  0  0  0  0  0  0  0  0  0  0
   -0.0000   -1.6000    0.0000 C   0  0  0  0  0  0  0  0  0  0  0  0
   -0.0000   -0.0000    0.0000 C   0  0  0  0  0  0  0  0  0  0  0  0
   -1.3856    0.8000    0.0000 C   0  0  0  0  0  0  0  0  0  0  0  0
   -1.3856    2.4000    0.0000 H   0  0  0  0  0  0  0  0  0  0  0  0
   -2.7713   -0.0000    0.0000 C   0  0  0  0  0  0  0  0  0  0  0  0
   -4.1569    0.8000    0.0000 H   0  0  0  0  0  0  0  0  0  0  0  0
   -2.7713   -1.6000    0.0000 C   0  0  0  0  0  0  0  0  0  0  0  0
   -4.1569   -2.4000    0.0000 H   0  0  0  0  0  0  0  0  0  0  0  0
   -1.3856   -2.4000    0.0000 C   0  0  0  0  0  0  0  0  0  0  0  0
   -1.3856   -4.0000    0.0000 H   0  0  0  0  0  0  0  0  0  0  0  0
  1  2  1  0  0  0  0
  1  3  2  0  0  0  0
  3  4  1  0  0  0  0
  3  5  1  0  0  0  0
  5  6  1  0  0  0  0
  6  7  1  0  0  0  0
  7  1  1  0  0  0  0
  7  8  2  0  0  0  0
  8  9  1  0  0  0  0
  8 10  1  0  0  0  0
 10 11  1  0  0  0  0
 10 12  2  0  0  0  0
 12 13  1  0  0  0  0
 12 14  1  0  0  0  0
 14  6  2  0  0  0  0
 14 15  1  0  0  0  0
M  END
> <ChemID>
101151

> <source_casrn>
271-89-6

> <CAS>
271-89-6

> <SMILES>
c1cccc2occc21

> <NAME>
BENZOFURAN

> <preferred_name>
2,3-Benzofuran

> <iupac>
1-benzofuran

> <MPID>
25776

> <dsstox_substance_id>
DTXSID6020141

> <Canonical_QSARr>
c1cccc2occc21

> <InChI_Code_QSARr>
InChI=1S/C8H6O/c1-2-4-8-7(3-1)5-6-9-8/h1-6H

> <InChI Key_QSARr>
IANQTJSKSUMEQM-UHFFFAOYSA-N

> <Salt_Solvent>
?

> <LogVP>
-0.3565

$$$$
101155
  -INDIGO-08031723152D

 12 12  0  0  0  0  0  0  0  0999 V2000
    0.0000    0.0000    0.0000 C   0  0  0  0  0  0  0  0  0  0  0  0
    1.6000    0.0000    0.0000 H   0  0  0  0  0  0  0  0  0  0  0  0
    0.0000    1.6000    0.0000 H   0  0  0  0  0  0  0  0  0  0  0  0
    0.0000   -1.6000    0.0000 C   0  0  0  0  0  0  0  0  0  0  0  0
    1.6000   -1.6000    0.0000 H   0  0  0  0  0  0  0  0  0  0  0  0
    0.0000   -3.2000    0.0000 H   0  0  0  0  0  0  0  0  0  0  0  0
   -1.6000   -1.6000    0.0000 C   0  0  0  0  0  0  0  0  0  0  0  0
   -1.6000   -3.2000    0.0000 H   0  0  0  0  0  0  0  0  0  0  0  0
   -3.2000   -1.6000    0.0000 H   0  0  0  0  0  0  0  0  0  0  0  0
   -1.6000    0.0000    0.0000 C   0  0  0  0  0  0  0  0  0  0  0  0
   -3.2000    0.0000    0.0000 H   0  0  0  0  0  0  0  0  0  0  0  0
   -1.6000    1.6000    0.0000 H   0  0  0  0  0  0  0  0  0  0  0  0
  1  2  1  0  0  0  0
  1  3  1  0  0  0  0
  1  4  1  0  0  0  0
  4  5  1  0  0  0  0
  4  6  1  0  0  0  0
  4  7  1  0  0  0  0
  7  8  1  0  0  0  0
  7  9  1  0  0  0  0
  7 10  1  0  0  0  0
 10  1  1  0  0  0  0
 10 11  1  0  0  0  0
 10 12  1  0  0  0  0
M  END
> <ChemID>
101155

> <source_casrn>
287-23-0

> <CAS>
287-23-0

> <SMILES>
C1CCC1

> <NAME>
CYCLOBUTANE

> <preferred_name>
Cyclobutane

> <iupac>
cyclobutatetraene

> <MPID>
25780

> <dsstox_substance_id>
DTXSID2059772

> <Canonical_QSARr>
C1CCC1

> <InChI_Code_QSARr>
InChI=1S/C4H8/c1-2-4-3-1/h1-4H2

> <InChI Key_QSARr>
PMPVIKIVABFJJI-UHFFFAOYSA-N

> <Salt_Solvent>
?

> <LogVP>
3.07

$$$$
101159
  -INDIGO-08031723152D

  8  8  0  0  0  0  0  0  0  0999 V2000
   -1.7323    1.9239    0.0000 O   0  0  0  0  0  0  0  0  0  0  0  0
   -0.1673    1.5913    0.0000 C   0  0  0  0  0  0  0  0  0  0  0  0
    1.0218    2.6618    0.0000 H   0  0  0  0  0  0  0  0  0  0  0  0
    0.0000    0.0000    0.0000 C   0  0  0  0  0  0  0  0  0  0  0  0
    1.3856   -0.8000    0.0000 H   0  0  0  0  0  0  0  0  0  0  0  0
   -1.4617   -0.6508    0.0000 N   0  0  0  0  0  0  0  0  0  0  0  0
   -2.5323    0.5383    0.0000 C   0  0  0  0  0  0  0  0  0  0  0  0
   -4.1235    0.3710    0.0000 H   0  0  0  0  0  0  0  0  0  0  0  0
  1  2  1  0  0  0  0
  2  3  1  0  0  0  0
  2  4  2  0  0  0  0
  4  5  1  0  0  0  0
  4  6  1  0  0  0  0
  6  7  2  0  0  0  0
  7  1  1  0  0  0  0
  7  8  1  0  0  0  0
M  END
> <ChemID>
101159

> <source_casrn>
288-42-6

> <CAS>
288-42-6

> <SMILES>
c1[n]cco1

> <NAME>
OXAZOLE

> <preferred_name>
Oxazole

> <iupac>
1,3-oxazole

> <MPID>
25784

> <dsstox_substance_id>
DTXSID70182983

> <Canonical_QSARr>
c1[n]cco1

> <InChI_Code_QSARr>
InChI=1S/C3H3NO/c1-2-5-3-4-1/h1-3H

> <InChI Key_QSARr>
ZCQWOFVYLHDMMC-UHFFFAOYSA-N

> <Salt_Solvent>
?

> <LogVP>
2.1206

$$$$
101163
  -INDIGO-08031723152D

 24 24  0  0  0  0  0  0  0  0999 V2000
    0.0000    0.0000    0.0000 C   0  0  0  0  0  0  0  0  0  0  0  0
    0.2778    1.5757    0.0000 H   0  0  0  0  0  0  0  0  0  0  0  0
    1.5454    0.4141    0.0000 H   0  0  0  0  0  0  0  0  0  0  0  0
   -1.5455    0.4141    0.0000 C   0  0  0  0  0  0  0  0  0  0  0  0
   -0.7455    1.7998    0.0000 H   0  0  0  0  0  0  0  0  0  0  0  0
   -2.4632    1.7247    0.0000 H   0  0  0  0  0  0  0  0  0  0  0  0
   -2.9311   -0.3859    0.0000 C   0  0  0  0  0  0  0  0  0  0  0  0
   -3.3452    1.1596    0.0000 H   0  0  0  0  0  0  0  0  0  0  0  0
   -4.5068   -0.1081    0.0000 H   0  0  0  0  0  0  0  0  0  0  0  0
   -3.3452   -1.9314    0.0000 C   0  0  0  0  0  0  0  0  0  0  0  0
   -4.7309   -1.1314    0.0000 H   0  0  0  0  0  0  0  0  0  0  0  0
   -4.6558   -2.8490    0.0000 H   0  0  0  0  0  0  0  0  0  0  0  0
   -2.5453   -3.3170    0.0000 C   0  0  0  0  0  0  0  0  0  0  0  0
   -4.0907   -3.7311    0.0000 H   0  0  0  0  0  0  0  0  0  0  0  0
   -2.8230   -4.8927    0.0000 H   0  0  0  0  0  0  0  0  0  0  0  0
   -0.9997   -3.7311    0.0000 C   0  0  0  0  0  0  0  0  0  0  0  0
   -1.7997   -5.1168    0.0000 H   0  0  0  0  0  0  0  0  0  0  0  0
   -0.0820   -5.0417    0.0000 H   0  0  0  0  0  0  0  0  0  0  0  0
    0.3859   -2.9312    0.0000 C   0  0  0  0  0  0  0  0  0  0  0  0
    0.8000   -4.4766    0.0000 H   0  0  0  0  0  0  0  0  0  0  0  0
    1.9616   -3.2089    0.0000 H   0  0  0  0  0  0  0  0  0  0  0  0
    0.8000   -1.3856    0.0000 C   0  0  0  0  0  0  0  0  0  0  0  0
    2.1856   -2.1856    0.0000 H   0  0  0  0  0  0  0  0  0  0  0  0
    2.1106   -0.4679    0.0000 H   0  0  0  0  0  0  0  0  0  0  0  0
  1  2  1  0  0  0  0
  1  3  1  0  0  0  0
  1  4  1  0  0  0  0
  4  5  1  0  0  0  0
  4  6  1  0  0  0  0
  4  7  1  0  0  0  0
  7  8  1  0  0  0  0
  7  9  1  0  0  0  0
  7 10  1  0  0  0  0
 10 11  1  0  0  0  0
 10 12  1  0  0  0  0
 10 13  1  0  0  0  0
 13 14  1  0  0  0  0
 13 15  1  0  0  0  0
 13 16  1  0  0  0  0
 16 17  1  0  0  0  0
 16 18  1  0  0  0  0
 16 19  1  0  0  0  0
 19 20  1  0  0  0  0
 19 21  1  0  0  0  0
 19 22  1  0  0  0  0
 22  1  1  0  0  0  0
 22 23  1  0  0  0  0
 22 24  1  0  0  0  0
M  END
> <ChemID>
101163

> <source_casrn>
292-64-8

> <CAS>
292-64-8

> <SMILES>
C1CCCCCCC1

> <NAME>
CYCLOOCTANE

> <preferred_name>
Cyclooctane

> <iupac>


> <MPID>
25788

> <dsstox_substance_id>
DTXSID9075377

> <Canonical_QSARr>
C1CCCCCCC1

> <InChI_Code_QSARr>
InChI=1S/C8H16/c1-2-4-6-8-7-5-3-1/h1-8H2

> <InChI Key_QSARr>
WJTCGQSWYFHTAC-UHFFFAOYSA-N

> <Salt_Solvent>
?

> <LogVP>
0.7412

$$$$
101167
  -INDIGO-08031723152D

 37 36  0  0  0  0  0  0  0  0999 V2000
    6.4001   -0.0001    0.0000 P   0  0  0  0  0  0  0  0  0  0  0  0
    7.2000    1.3856    0.0000 O   0  0  0  0  0  0  0  0  0  0  0  0
    8.0000   -0.0001    0.0000 O   0  0  0  0  0  0  0  0  0  0  0  0
    8.7999   -1.3856    0.0000 C   0  0  0  0  0  0  0  0  0  0  0  0
   10.4000   -1.3856    0.0000 H   0  0  0  0  0  0  0  0  0  0  0  0
    9.6001   -2.7713    0.0000 H   0  0  0  0  0  0  0  0  0  0  0  0
    9.6001   -0.0001    0.0000 H   0  0  0  0  0  0  0  0  0  0  0  0
    7.2000   -1.3856    0.0000 O   0  0  0  0  0  0  0  0  0  0  0  0
    6.4001   -2.7712    0.0000 C   0  0  0  0  0  0  0  0  0  0  0  0
    5.5999   -4.1569    0.0000 H   0  0  0  0  0  0  0  0  0  0  0  0
    7.2000   -4.1569    0.0000 H   0  0  0  0  0  0  0  0  0  0  0  0
    4.8000   -2.7712    0.0000 H   0  0  0  0  0  0  0  0  0  0  0  0
    4.8000    0.0001    0.0000 O   0  0  0  0  0  0  0  0  0  0  0  0
    4.0001    1.3856    0.0000 C   0  0  0  0  0  0  0  0  0  0  0  0
    2.4000    1.3856    0.0000 C   0  0  0  0  0  0  0  0  0  0  0  0
    1.6000    0.0001    0.0000 C   0  0  0  0  0  0  0  0  0  0  0  0
   -0.0001    0.0001    0.0000 N   0  0  0  0  0  0  0  0  0  0  0  0
   -0.8000    1.3856    0.0000 C   0  0  0  0  0  0  0  0  0  0  0  0
   -2.2782    1.9979    0.0000 H   0  0  0  0  0  0  0  0  0  0  0  0
   -2.2782    0.7734    0.0000 H   0  0  0  0  0  0  0  0  0  0  0  0
   -0.0001    2.7713    0.0000 C   0  0  0  0  0  0  0  0  0  0  0  0
   -0.8000    4.1569    0.0000 H   0  0  0  0  0  0  0  0  0  0  0  0
    0.8001    4.1569    0.0000 H   0  0  0  0  0  0  0  0  0  0  0  0
   -1.5999    2.7713    0.0000 H   0  0  0  0  0  0  0  0  0  0  0  0
   -0.8000   -1.3856    0.0000 C   0  0  0  0  0  0  0  0  0  0  0  0
   -2.2782   -0.7734    0.0000 H   0  0  0  0  0  0  0  0  0  0  0  0
   -2.2782   -1.9979    0.0000 H   0  0  0  0  0  0  0  0  0  0  0  0
   -0.0001   -2.7712    0.0000 C   0  0  0  0  0  0  0  0  0  0  0  0
   -0.8000   -4.1569    0.0000 H   0  0  0  0  0  0  0  0  0  0  0  0
    0.8001   -4.1569    0.0000 H   0  0  0  0  0  0  0  0  0  0  0  0
   -1.5999   -2.7712    0.0000 H   0  0  0  0  0  0  0  0  0  0  0  0
    2.4000   -1.3856    0.0000 O   0  0  0  0  0  0  0  0  0  0  0  0
    1.6000    2.7713    0.0000 Cl  0  0  0  0  0  0  0  0  0  0  0  0
    4.8000    2.7712    0.0000 C   0  0  0  0  0  0  0  0  0  0  0  0
    5.5999    4.1569    0.0000 H   0  0  0  0  0  0  0  0  0  0  0  0
    6.4001    2.7712    0.0000 H   0  0  0  0  0  0  0  0  0  0  0  0
    4.0001    4.1569    0.0000 H   0  0  0  0  0  0  0  0  0  0  0  0
  1  2  2  0  0  0  0
  1  3  1  0  0  0  0
  3  4  1  0  0  0  0
  4  5  1  0  0  0  0
  4  6  1  0  0  0  0
  4  7  1  0  0  0  0
  1  8  1  0  0  0  0
  8  9  1  0  0  0  0
  9 10  1  0  0  0  0
  9 11  1  0  0  0  0
  9 12  1  0  0  0  0
  1 13  1  0  0  0  0
 13 14  1  0  0  0  0
 14 15  2  0  0  0  0
 15 16  1  0  0  0  0
 16 17  1  0  0  0  0
 17 18  1  0  0  0  0
 18 19  1  0  0  0  0
 18 20  1  0  0  0  0
 18 21  1  0  0  0  0
 21 22  1  0  0  0  0
 21 23  1  0  0  0  0
 21 24  1  0  0  0  0
 17 25  1  0  0  0  0
 25 26  1  0  0  0  0
 25 27  1  0  0  0  0
 25 28  1  0  0  0  0
 28 29  1  0  0  0  0
 28 30  1  0  0  0  0
 28 31  1  0  0  0  0
 16 32  2  0  0  0  0
 15 33  1  0  0  0  0
 14 34  1  0  0  0  0
 34 35  1  0  0  0  0
 34 36  1  0  0  0  0
 34 37  1  0  0  0  0
M  END
> <ChemID>
101167

> <source_casrn>
297-99-4

> <CAS>
297-99-4

> <SMILES>
C/C(/OP(=O)(OC)OC)=C(\Cl)/C(=O)N(CC)CC

> <NAME>
PHOSPHAMIDON

> <preferred_name>
Phosphamidon (E isomer)

> <iupac>
(2E)-3-chloro-4-(diethylamino)-4-oxo-2-buten-2-yl dimethyl phosphate

> <MPID>
25792

> <dsstox_substance_id>
DTXSID5058357

> <Canonical_QSARr>
CC(OP(=O)(OC)OC)=C(Cl)C(=O)N(CC)CC

> <InChI_Code_QSARr>
InChI=1S/C10H19ClNO5P/c1-6-12(7-2)10(13)9(11)8(3)17-18(14,15-4)16-5/h6-7H2,1-5H3/b9-8+

> <InChI Key_QSARr>
RGCLLPNLLBQHPF-CMDGGOBGSA-N

> <Salt_Solvent>
?

> <LogVP>
-4.7825

$$$$
101171
  -INDIGO-08031723152D

 33 32  0  0  0  0  0  0  0  0999 V2000
    2.7714    3.2001    0.0000 C   0  0  0  0  0  0  0  0  0  0  0  0
    4.1569    4.0000    0.0000 H   0  0  0  0  0  0  0  0  0  0  0  0
    2.7714    4.8000    0.0000 H   0  0  0  0  0  0  0  0  0  0  0  0
    4.1569    2.4000    0.0000 H   0  0  0  0  0  0  0  0  0  0  0  0
    1.3856    2.4000    0.0000 C   0  0  0  0  0  0  0  0  0  0  0  0
    0.4116    3.6694    0.0000 H   0  0  0  0  0  0  0  0  0  0  0  0
   -0.2008    2.6089    0.0000 H   0  0  0  0  0  0  0  0  0  0  0  0
    1.3856    0.8000    0.0000 O   0  0  0  0  0  0  0  0  0  0  0  0
    0.0001    0.0001    0.0000 P   0  0  0  0  0  0  0  0  0  0  0  0
    1.3856   -0.8000    0.0000 O   0  0  0  0  0  0  0  0  0  0  0  0
    1.3856   -2.4000    0.0000 C   0  0  0  0  0  0  0  0  0  0  0  0
   -0.2008   -2.6089    0.0000 H   0  0  0  0  0  0  0  0  0  0  0  0
    0.4116   -3.6694    0.0000 H   0  0  0  0  0  0  0  0  0  0  0  0
    2.7714   -3.2001    0.0000 C   0  0  0  0  0  0  0  0  0  0  0  0
    4.1569   -4.0000    0.0000 H   0  0  0  0  0  0  0  0  0  0  0  0
    2.7714   -4.8000    0.0000 H   0  0  0  0  0  0  0  0  0  0  0  0
    4.1569   -2.4000    0.0000 H   0  0  0  0  0  0  0  0  0  0  0  0
    0.0001   -1.6000    0.0000 S   0  0  0  0  0  0  0  0  0  0  0  0
   -1.3856    0.8000    0.0000 S   0  0  0  0  0  0  0  0  0  0  0  0
   -2.7712    0.0001    0.0000 C   0  0  0  0  0  0  0  0  0  0  0  0
   -3.3835   -1.4783    0.0000 H   0  0  0  0  0  0  0  0  0  0  0  0
   -2.1591   -1.4783    0.0000 H   0  0  0  0  0  0  0  0  0  0  0  0
   -4.1569    0.8000    0.0000 C   0  0  0  0  0  0  0  0  0  0  0  0
   -3.5446    2.2782    0.0000 H   0  0  0  0  0  0  0  0  0  0  0  0
   -4.7692    2.2782    0.0000 H   0  0  0  0  0  0  0  0  0  0  0  0
   -5.5425    0.0001    0.0000 S   0  0  0  0  0  0  0  0  0  0  0  0
   -6.9282    0.8000    0.0000 C   0  0  0  0  0  0  0  0  0  0  0  0
   -6.3159    2.2782    0.0000 H   0  0  0  0  0  0  0  0  0  0  0  0
   -7.5405    2.2782    0.0000 H   0  0  0  0  0  0  0  0  0  0  0  0
   -8.3137    0.0001    0.0000 C   0  0  0  0  0  0  0  0  0  0  0  0
   -9.6995   -0.8000    0.0000 H   0  0  0  0  0  0  0  0  0  0  0  0
   -9.6995    0.8000    0.0000 H   0  0  0  0  0  0  0  0  0  0  0  0
   -8.3137   -1.6000    0.0000 H   0  0  0  0  0  0  0  0  0  0  0  0
  1  2  1  0  0  0  0
  1  3  1  0  0  0  0
  1  4  1  0  0  0  0
  1  5  1  0  0  0  0
  5  6  1  0  0  0  0
  5  7  1  0  0  0  0
  5  8  1  0  0  0  0
  8  9  1  0  0  0  0
  9 10  1  0  0  0  0
 10 11  1  0  0  0  0
 11 12  1  0  0  0  0
 11 13  1  0  0  0  0
 11 14  1  0  0  0  0
 14 15  1  0  0  0  0
 14 16  1  0  0  0  0
 14 17  1  0  0  0  0
  9 18  2  0  0  0  0
  9 19  1  0  0  0  0
 19 20  1  0  0  0  0
 20 21  1  0  0  0  0
 20 22  1  0  0  0  0
 20 23  1  0  0  0  0
 23 24  1  0  0  0  0
 23 25  1  0  0  0  0
 23 26  1  0  0  0  0
 26 27  1  0  0  0  0
 27 28  1  0  0  0  0
 27 29  1  0  0  0  0
 27 30  1  0  0  0  0
 30 31  1  0  0  0  0
 30 32  1  0  0  0  0
 30 33  1  0  0  0  0
M  END
> <ChemID>
101171

> <source_casrn>
298-04-4

> <CAS>
298-04-4

> <SMILES>
CCSCCSP(=S)(OCC)OCC

> <NAME>
DISULFOTON

> <preferred_name>
Disulfoton

> <iupac>
O,O-diethyl S-[2-(ethylsulfanyl)ethyl] phosphorodithioate

> <MPID>
25796

> <dsstox_substance_id>
DTXSID0022018

> <Canonical_QSARr>
CCSCCSP(=S)(OCC)OCC

> <InChI_Code_QSARr>
InChI=1S/C8H19O2PS3/c1-4-9-11(12,10-5-2)14-8-7-13-6-3/h4-8H2,1-3H3

> <InChI Key_QSARr>
DOFZAZXDOSGAJZ-UHFFFAOYSA-N

> <Salt_Solvent>
?

> <LogVP>
-4.011

$$$$
101175
  -INDIGO-08031723152D

 53 52  0  0  0  0  0  0  0  0999 V2000
   -5.5426    0.0000    0.0000 C   0  0  0  0  0  0  0  0  0  0  0  0
   -4.1569    0.8000    0.0000 C   0  0  0  0  0  0  0  0  0  0  0  0
   -4.7692    2.2782    0.0000 H   0  0  0  0  0  0  0  0  0  0  0  0
   -3.5446    2.2782    0.0000 H   0  0  0  0  0  0  0  0  0  0  0  0
   -2.7711    0.0000    0.0000 C   0  0  0  0  0  0  0  0  0  0  0  0
   -2.1588   -1.4782    0.0000 H   0  0  0  0  0  0  0  0  0  0  0  0
   -3.3834   -1.4782    0.0000 H   0  0  0  0  0  0  0  0  0  0  0  0
   -1.3858    0.8000    0.0000 C   0  0  0  0  0  0  0  0  0  0  0  0
   -1.9981    2.2782    0.0000 H   0  0  0  0  0  0  0  0  0  0  0  0
   -0.7735    2.2782    0.0000 H   0  0  0  0  0  0  0  0  0  0  0  0
    0.0000    0.0000    0.0000 C   0  0  0  0  0  0  0  0  0  0  0  0
    0.6123   -1.4782    0.0000 H   0  0  0  0  0  0  0  0  0  0  0  0
   -0.6123   -1.4782    0.0000 H   0  0  0  0  0  0  0  0  0  0  0  0
    1.3858    0.8000    0.0000 C   0  0  0  0  0  0  0  0  0  0  0  0
    0.7735    2.2782    0.0000 H   0  0  0  0  0  0  0  0  0  0  0  0
    1.9981    2.2782    0.0000 H   0  0  0  0  0  0  0  0  0  0  0  0
    2.7711    0.0000    0.0000 C   0  0  0  0  0  0  0  0  0  0  0  0
    3.3834   -1.4782    0.0000 H   0  0  0  0  0  0  0  0  0  0  0  0
    2.1588   -1.4782    0.0000 H   0  0  0  0  0  0  0  0  0  0  0  0
    4.1569    0.8000    0.0000 C   0  0  0  0  0  0  0  0  0  0  0  0
    3.5446    2.2782    0.0000 H   0  0  0  0  0  0  0  0  0  0  0  0
    4.7692    2.2782    0.0000 H   0  0  0  0  0  0  0  0  0  0  0  0
    5.5426    0.0000    0.0000 C   0  0  0  0  0  0  0  0  0  0  0  0
    5.5426   -1.6000    0.0000 H   0  0  0  0  0  0  0  0  0  0  0  0
    6.9284    0.8000    0.0000 C   0  0  0  0  0  0  0  0  0  0  0  0
    6.9284    2.4000    0.0000 H   0  0  0  0  0  0  0  0  0  0  0  0
    8.3137    0.0000    0.0000 C   0  0  0  0  0  0  0  0  0  0  0  0
    8.9260   -1.4782    0.0000 H   0  0  0  0  0  0  0  0  0  0  0  0
    7.7014   -1.4782    0.0000 H   0  0  0  0  0  0  0  0  0  0  0  0
    9.6995    0.8000    0.0000 C   0  0  0  0  0  0  0  0  0  0  0  0
    9.6995    2.4000    0.0000 H   0  0  0  0  0  0  0  0  0  0  0  0
   11.0853    0.0000    0.0000 C   0  0  0  0  0  0  0  0  0  0  0  0
   11.0853   -1.6000    0.0000 H   0  0  0  0  0  0  0  0  0  0  0  0
   12.4706    0.8000    0.0000 C   0  0  0  0  0  0  0  0  0  0  0  0
   11.8583    2.2782    0.0000 H   0  0  0  0  0  0  0  0  0  0  0  0
   13.0829    2.2782    0.0000 H   0  0  0  0  0  0  0  0  0  0  0  0
   13.8563    0.0000    0.0000 C   0  0  0  0  0  0  0  0  0  0  0  0
   13.8563   -1.6000    0.0000 H   0  0  0  0  0  0  0  0  0  0  0  0
   15.2421    0.8000    0.0000 C   0  0  0  0  0  0  0  0  0  0  0  0
   15.2421    2.4000    0.0000 H   0  0  0  0  0  0  0  0  0  0  0  0
   16.6279    0.0000    0.0000 C   0  0  0  0  0  0  0  0  0  0  0  0
   17.2402   -1.4782    0.0000 H   0  0  0  0  0  0  0  0  0  0  0  0
   16.0156   -1.4782    0.0000 H   0  0  0  0  0  0  0  0  0  0  0  0
   18.0132    0.8000    0.0000 C   0  0  0  0  0  0  0  0  0  0  0  0
   19.3990    1.6000    0.0000 H   0  0  0  0  0  0  0  0  0  0  0  0
   19.3990    0.0000    0.0000 H   0  0  0  0  0  0  0  0  0  0  0  0
   18.0132    2.4000    0.0000 H   0  0  0  0  0  0  0  0  0  0  0  0
   -6.9284    0.8000    0.0000 O   0  0  0  0  0  0  0  0  0  0  0  0
   -8.3137    0.0000    0.0000 C   0  0  0  0  0  0  0  0  0  0  0  0
   -9.6995   -0.8000    0.0000 H   0  0  0  0  0  0  0  0  0  0  0  0
   -9.6995    0.8000    0.0000 H   0  0  0  0  0  0  0  0  0  0  0  0
   -8.3137   -1.6000    0.0000 H   0  0  0  0  0  0  0  0  0  0  0  0
   -5.5426   -1.6000    0.0000 O   0  0  0  0  0  0  0  0  0  0  0  0
  1  2  1  0  0  0  0
  2  3  1  0  0  0  0
  2  4  1  0  0  0  0
  2  5  1  0  0  0  0
  5  6  1  0  0  0  0
  5  7  1  0  0  0  0
  5  8  1  0  0  0  0
  8  9  1  0  0  0  0
  8 10  1  0  0  0  0
  8 11  1  0  0  0  0
 11 12  1  0  0  0  0
 11 13  1  0  0  0  0
 11 14  1  0  0  0  0
 14 15  1  0  0  0  0
 14 16  1  0  0  0  0
 14 17  1  0  0  0  0
 17 18  1  0  0  0  0
 17 19  1  0  0  0  0
 17 20  1  0  0  0  0
 20 21  1  0  0  0  0
 20 22  1  0  0  0  0
 20 23  1  0  0  0  0
 23 24  1  0  0  0  0
 23 25  2  0  0  0  0
 25 26  1  0  0  0  0
 25 27  1  0  0  0  0
 27 28  1  0  0  0  0
 27 29  1  0  0  0  0
 27 30  1  0  0  0  0
 30 31  1  0  0  0  0
 30 32  2  0  0  0  0
 32 33  1  0  0  0  0
 32 34  1  0  0  0  0
 34 35  1  0  0  0  0
 34 36  1  0  0  0  0
 34 37  1  0  0  0  0
 37 38  1  0  0  0  0
 37 39  2  0  0  0  0
 39 40  1  0  0  0  0
 39 41  1  0  0  0  0
 41 42  1  0  0  0  0
 41 43  1  0  0  0  0
 41 44  1  0  0  0  0
 44 45  1  0  0  0  0
 44 46  1  0  0  0  0
 44 47  1  0  0  0  0
  1 48  1  0  0  0  0
 48 49  1  0  0  0  0
 49 50  1  0  0  0  0
 49 51  1  0  0  0  0
 49 52  1  0  0  0  0
  1 53  2  0  0  0  0
M  END
> <ChemID>
101175

> <source_casrn>
301-00-8

> <CAS>
301-00-8

> <SMILES>
CC/C=C\C/C=C\C/C=C\CCCCCCCC(=O)OC

> <NAME>
Methyl linolenate

> <preferred_name>
Methyl linolenate

> <iupac>
methyl (9Z,12Z,15Z)-octadeca-9,12,15-trienoate

> <MPID>
25800

> <dsstox_substance_id>
DTXSID5041560

> <Canonical_QSARr>
CCC=CCC=CCC=CCCCCCCCC(=O)OC

> <InChI_Code_QSARr>
InChI=1S/C19H32O2/c1-3-4-5-6-7-8-9-10-11-12-13-14-15-16-17-18-19(20)21-2/h4-5,7-8,10-11H,3,6,9,12-18H2,1-2H3/b5-4+,8-7+,11-10+

> <InChI Key_QSARr>
DVWSXZIHSUZZKJ-JSIPCRQOSA-N

> <Salt_Solvent>
?

> <LogVP>
-5.295

$$$$
101180
  -INDIGO-08031723152D

 26 29  0  0  0  0  0  0  0  0999 V2000
   -0.0000    0.0000    0.0000 C   0  0  0  0  0  0  0  0  0  0  0  0
    0.3326    1.5651    0.0000 H   0  0  0  0  0  0  0  0  0  0  0  0
    1.5912    0.1672    0.0000 C   0  0  0  0  0  0  0  0  0  0  0  0
    1.9239    1.7323    0.0000 H   0  0  0  0  0  0  0  0  0  0  0  0
    2.9769   -0.6327    0.0000 C   0  0  0  0  0  0  0  0  0  0  0  0
    4.4385    0.0181    0.0000 H   0  0  0  0  0  0  0  0  0  0  0  0
    2.6442   -2.1978    0.0000 C   0  0  0  0  0  0  0  0  0  0  0  0
    3.7148   -3.3868    0.0000 H   0  0  0  0  0  0  0  0  0  0  0  0
    1.0530   -2.3650    0.0000 C   0  0  0  0  0  0  0  0  0  0  0  0
    0.7204   -3.9301    0.0000 H   0  0  0  0  0  0  0  0  0  0  0  0
    2.2420   -1.2945    0.0000 C   0  0  0  0  0  0  0  0  0  0  0  0
    3.8177   -1.0166    0.0000 H   0  0  0  0  0  0  0  0  0  0  0  0
    3.5685   -2.1891    0.0000 H   0  0  0  0  0  0  0  0  0  0  0  0
   -0.3326   -1.5650    0.0000 C   0  0  0  0  0  0  0  0  0  0  0  0
   -0.6653   -3.1301    0.0000 H   0  0  0  0  0  0  0  0  0  0  0  0
   -1.9239   -1.7323    0.0000 C   0  0  0  0  0  0  0  0  0  0  0  0
   -3.3095   -0.9323    0.0000 C   0  0  0  0  0  0  0  0  0  0  0  0
   -4.7712   -1.5831    0.0000 Cl  0  0  0  0  0  0  0  0  0  0  0  0
   -2.9769    0.6327    0.0000 C   0  0  0  0  0  0  0  0  0  0  0  0
   -4.0475    1.8218    0.0000 Cl  0  0  0  0  0  0  0  0  0  0  0  0
   -1.3857    0.8000    0.0000 C   0  0  0  0  0  0  0  0  0  0  0  0
   -1.0530    2.3650    0.0000 Cl  0  0  0  0  0  0  0  0  0  0  0  0
   -2.5747   -0.2706    0.0000 C   0  0  0  0  0  0  0  0  0  0  0  0
   -4.1503   -0.5485    0.0000 Cl  0  0  0  0  0  0  0  0  0  0  0  0
   -3.9012    0.6241    0.0000 Cl  0  0  0  0  0  0  0  0  0  0  0  0
   -2.2565   -3.2973    0.0000 Cl  0  0  0  0  0  0  0  0  0  0  0  0
  1  2  1  0  0  0  0
  1  3  1  0  0  0  0
  3  4  1  0  0  0  0
  3  5  1  0  0  0  0
  5  6  1  0  0  0  0
  5  7  2  0  0  0  0
  7  8  1  0  0  0  0
  7  9  1  0  0  0  0
  9 10  1  0  0  0  0
  9 11  1  0  0  0  0
 11  3  1  0  0  0  0
 11 12  1  0  0  0  0
 11 13  1  0  0  0  0
  9 14  1  0  0  0  0
 14  1  1  0  0  0  0
 14 15  1  0  0  0  0
 14 16  1  0  0  0  0
 16 17  1  0  0  0  0
 17 18  1  0  0  0  0
 17 19  2  0  0  0  0
 19 20  1  0  0  0  0
 19 21  1  0  0  0  0
 21  1  1  0  0  0  0
 21 22  1  0  0  0  0
 21 23  1  0  0  0  0
 23 16  1  0  0  0  0
 23 24  1  0  0  0  0
 23 25  1  0  0  0  0
 16 26  1  0  0  0  0
M  END
> <ChemID>
101180

> <source_casrn>
309-00-2

> <CAS>
309-00-2

> <SMILES>
ClC1(Cl)[C@@]2(Cl)[C@@H]3[C@@H]4C[C@@H](C=C4)[C@@H]3[C@]1(Cl)C(Cl)=C2Cl |&1:3,5,6,8,11,12|

> <NAME>
ALDRIN

> <preferred_name>
Aldrin

> <iupac>
C12H8Cl6

> <MPID>
25804

> <dsstox_substance_id>
DTXSID8020040

> <Canonical_QSARr>
ClC1(Cl)C2(Cl)C3C4CC(C=C4)C3C1(Cl)C(Cl)=C2Cl

> <InChI_Code_QSARr>
InChI=1S/C12H8Cl6/c13-8-9(14)11(16)7-5-2-1-4(3-5)6(7)10(8,15)12(11,17)18/h1-2,4-7H,3H2

> <InChI Key_QSARr>
QBYJBZPUGVGKQQ-UHFFFAOYSA-N

> <Salt_Solvent>
?

> <LogVP>
-3.9208

$$$$
101187
  -INDIGO-08031723152D

 15 15  0  0  0  0  0  0  0  0999 V2000
    2.4001    1.3856    0.0000 C   0  0  0  0  0  0  0  0  0  0  0  0
    3.2000    2.7713    0.0000 H   0  0  0  0  0  0  0  0  0  0  0  0
    0.7999    1.3856    0.0000 C   0  0  0  0  0  0  0  0  0  0  0  0
    0.0000    2.7713    0.0000 Cl  0  0  0  0  0  0  0  0  0  0  0  0
    0.0000    0.0000    0.0000 C   0  0  0  0  0  0  0  0  0  0  0  0
   -1.6000    0.0000    0.0000 C   0  0  0  0  0  0  0  0  0  0  0  0
   -3.2000    0.0000    0.0000 F   0  0  0  0  0  0  0  0  0  0  0  0
   -2.4001   -1.3856    0.0000 F   0  0  0  0  0  0  0  0  0  0  0  0
   -2.4001    1.3856    0.0000 F   0  0  0  0  0  0  0  0  0  0  0  0
    0.8001   -1.3856    0.0000 C   0  0  0  0  0  0  0  0  0  0  0  0
    0.0000   -2.7713    0.0000 H   0  0  0  0  0  0  0  0  0  0  0  0
    2.4001   -1.3856    0.0000 C   0  0  0  0  0  0  0  0  0  0  0  0
    3.2000   -2.7713    0.0000 H   0  0  0  0  0  0  0  0  0  0  0  0
    3.2000   -0.0000    0.0000 C   0  0  0  0  0  0  0  0  0  0  0  0
    4.8000    0.0000    0.0000 Cl  0  0  0  0  0  0  0  0  0  0  0  0
  1  2  1  0  0  0  0
  1  3  1  0  0  0  0
  3  4  1  0  0  0  0
  3  5  2  0  0  0  0
  5  6  1  0  0  0  0
  6  7  1  0  0  0  0
  6  8  1  0  0  0  0
  6  9  1  0  0  0  0
  5 10  1  0  0  0  0
 10 11  1  0  0  0  0
 10 12  2  0  0  0  0
 12 13  1  0  0  0  0
 12 14  1  0  0  0  0
 14  1  2  0  0  0  0
 14 15  1  0  0  0  0
M  END
> <ChemID>
101187

> <source_casrn>
320-60-5

> <CAS>
320-60-5

> <SMILES>
FC(F)(F)c1ccc(Cl)cc1Cl

> <NAME>
2,4-DICHLORO(TRIFLUOROMETHYL)BENZENE

> <preferred_name>
2,4-Dichlorobenzotrifluoride

> <iupac>
2,4-dichloro-1-(trifluoromethyl)benzene

> <MPID>
25811

> <dsstox_substance_id>
DTXSID0047959

> <Canonical_QSARr>
FC(F)(F)c1ccc(Cl)cc1Cl

> <InChI_Code_QSARr>
InChI=1S/C7H3Cl2F3/c8-4-1-2-5(6(9)3-4)7(10,11)12/h1-3H

> <InChI Key_QSARr>
KALSHRGEFLVFHE-UHFFFAOYSA-N

> <Salt_Solvent>
?

> <LogVP>
0.0449

$$$$
101191
  -INDIGO-08031723152D

 15 15  0  0  0  0  0  0  0  0999 V2000
    3.2000   -0.0000    0.0000 C   0  0  0  0  0  0  0  0  0  0  0  0
    2.4001    1.3856    0.0000 C   0  0  0  0  0  0  0  0  0  0  0  0
    3.2000    2.7713    0.0000 H   0  0  0  0  0  0  0  0  0  0  0  0
    0.7999    1.3856    0.0000 C   0  0  0  0  0  0  0  0  0  0  0  0
    0.0000    2.7713    0.0000 H   0  0  0  0  0  0  0  0  0  0  0  0
    0.0000   -0.0000    0.0000 C   0  0  0  0  0  0  0  0  0  0  0  0
   -1.6000   -0.0000    0.0000 C   0  0  0  0  0  0  0  0  0  0  0  0
   -3.2000   -0.0000    0.0000 F   0  0  0  0  0  0  0  0  0  0  0  0
   -2.4001   -1.3856    0.0000 F   0  0  0  0  0  0  0  0  0  0  0  0
   -2.4001    1.3856    0.0000 F   0  0  0  0  0  0  0  0  0  0  0  0
    0.7999   -1.3856    0.0000 C   0  0  0  0  0  0  0  0  0  0  0  0
    0.0000   -2.7713    0.0000 H   0  0  0  0  0  0  0  0  0  0  0  0
    2.4001   -1.3856    0.0000 C   0  0  0  0  0  0  0  0  0  0  0  0
    3.2000   -2.7713    0.0000 Cl  0  0  0  0  0  0  0  0  0  0  0  0
    4.8000   -0.0000    0.0000 Cl  0  0  0  0  0  0  0  0  0  0  0  0
  1  2  1  0  0  0  0
  2  3  1  0  0  0  0
  2  4  2  0  0  0  0
  4  5  1  0  0  0  0
  4  6  1  0  0  0  0
  6  7  1  0  0  0  0
  7  8  1  0  0  0  0
  7  9  1  0  0  0  0
  7 10  1  0  0  0  0
  6 11  2  0  0  0  0
 11 12  1  0  0  0  0
 11 13  1  0  0  0  0
 13  1  2  0  0  0  0
 13 14  1  0  0  0  0
  1 15  1  0  0  0  0
M  END
> <ChemID>
101191

> <source_casrn>
328-84-7

> <CAS>
328-84-7

> <SMILES>
FC(F)(F)c1cc(Cl)c(Cl)cc1

> <NAME>
3,4-DICHLOROBENZOTRIFLUORIDE

> <preferred_name>
1,2-Dichloro-4-(trifluoromethyl)benzene

> <iupac>
1,2-dichloro-4-(trifluoromethyl)benzene

> <MPID>
25815

> <dsstox_substance_id>
DTXSID5027142

> <Canonical_QSARr>
FC(F)(F)c1cc(Cl)c(Cl)cc1

> <InChI_Code_QSARr>
InChI=1S/C7H3Cl2F3/c8-5-2-1-4(3-6(5)9)7(10,11)12/h1-3H

> <InChI Key_QSARr>
XILPLWOGHPSJBK-UHFFFAOYSA-N

> <Salt_Solvent>
?

> <LogVP>
0.3724

$$$$
101195
  -INDIGO-08031723152D

 25 25  0  0  0  0  0  0  0  0999 V2000
    2.3999   -1.3856    0.0000 C   0  0  0  0  0  0  0  0  0  0  0  0
    1.6001    0.0000    0.0000 N   0  0  0  0  0  0  0  0  0  0  0  0
    2.3999    1.3856    0.0000 H   0  0  0  0  0  0  0  0  0  0  0  0
    0.0001    0.0000    0.0000 C   0  0  0  0  0  0  0  0  0  0  0  0
   -0.7999    1.3856    0.0000 C   0  0  0  0  0  0  0  0  0  0  0  0
    0.0001    2.7713    0.0000 H   0  0  0  0  0  0  0  0  0  0  0  0
   -2.4000    1.3856    0.0000 C   0  0  0  0  0  0  0  0  0  0  0  0
   -3.2000    2.7713    0.0000 Cl  0  0  0  0  0  0  0  0  0  0  0  0
   -3.2000    0.0000    0.0000 C   0  0  0  0  0  0  0  0  0  0  0  0
   -4.8000    0.0000    0.0000 Cl  0  0  0  0  0  0  0  0  0  0  0  0
   -2.4000   -1.3856    0.0000 C   0  0  0  0  0  0  0  0  0  0  0  0
   -3.2000   -2.7713    0.0000 H   0  0  0  0  0  0  0  0  0  0  0  0
   -0.7999   -1.3856    0.0000 C   0  0  0  0  0  0  0  0  0  0  0  0
    0.0001   -2.7713    0.0000 H   0  0  0  0  0  0  0  0  0  0  0  0
    3.9999   -1.3856    0.0000 N   0  0  0  0  0  0  0  0  0  0  0  0
    4.8000    0.0000    0.0000 O   0  0  0  0  0  0  0  0  0  0  0  0
    6.4000    0.0000    0.0000 C   0  0  0  0  0  0  0  0  0  0  0  0
    8.0000    0.0000    0.0000 H   0  0  0  0  0  0  0  0  0  0  0  0
    7.2000    1.3856    0.0000 H   0  0  0  0  0  0  0  0  0  0  0  0
    5.6000    1.3856    0.0000 H   0  0  0  0  0  0  0  0  0  0  0  0
    4.8000   -2.7713    0.0000 C   0  0  0  0  0  0  0  0  0  0  0  0
    5.6000   -4.1569    0.0000 H   0  0  0  0  0  0  0  0  0  0  0  0
    6.4000   -2.7713    0.0000 H   0  0  0  0  0  0  0  0  0  0  0  0
    3.9999   -4.1569    0.0000 H   0  0  0  0  0  0  0  0  0  0  0  0
    1.6001   -2.7713    0.0000 O   0  0  0  0  0  0  0  0  0  0  0  0
  1  2  1  0  0  0  0
  2  3  1  0  0  0  0
  2  4  1  0  0  0  0
  4  5  1  0  0  0  0
  5  6  1  0  0  0  0
  5  7  2  0  0  0  0
  7  8  1  0  0  0  0
  7  9  1  0  0  0  0
  9 10  1  0  0  0  0
  9 11  2  0  0  0  0
 11 12  1  0  0  0  0
 11 13  1  0  0  0  0
 13  4  2  0  0  0  0
 13 14  1  0  0  0  0
  1 15  1  0  0  0  0
 15 16  1  0  0  0  0
 16 17  1  0  0  0  0
 17 18  1  0  0  0  0
 17 19  1  0  0  0  0
 17 20  1  0  0  0  0
 15 21  1  0  0  0  0
 21 22  1  0  0  0  0
 21 23  1  0  0  0  0
 21 24  1  0  0  0  0
  1 25  2  0  0  0  0
M  END
> <ChemID>
101195

> <source_casrn>
330-55-2

> <CAS>
330-55-2

> <SMILES>
CON(C)C(=O)Nc1cc(Cl)c(Cl)cc1

> <NAME>
LINURON

> <preferred_name>
Linuron

> <iupac>
3-(3,4-dichlorophenyl)-1-methoxy-1-methylurea

> <MPID>
25819

> <dsstox_substance_id>
DTXSID2024163

> <Canonical_QSARr>
CON(C)C(=O)Nc1cc(Cl)c(Cl)cc1

> <InChI_Code_QSARr>
InChI=1S/C9H10Cl2N2O2/c1-13(15-2)9(14)12-6-3-4-7(10)8(11)5-6/h3-5H,1-2H3,(H,12,14)

> <InChI Key_QSARr>
XKJMBINCVNINCA-UHFFFAOYSA-N

> <Salt_Solvent>
?

> <LogVP>
-5.8447

$$$$
101199
  -INDIGO-08031723152D

 32 31  0  0  0  0  0  0  0  0999 V2000
   -0.0001    0.0000    0.0000 C   0  0  0  0  0  0  0  0  0  0  0  0
    0.6123    1.4782    0.0000 H   0  0  0  0  0  0  0  0  0  0  0  0
   -0.6122    1.4782    0.0000 H   0  0  0  0  0  0  0  0  0  0  0  0
   -1.3856   -0.8000    0.0000 C   0  0  0  0  0  0  0  0  0  0  0  0
   -1.9979   -2.2782    0.0000 H   0  0  0  0  0  0  0  0  0  0  0  0
   -0.7734   -2.2782    0.0000 H   0  0  0  0  0  0  0  0  0  0  0  0
   -2.7713    0.0000    0.0000 C   0  0  0  0  0  0  0  0  0  0  0  0
   -2.1589    1.4782    0.0000 H   0  0  0  0  0  0  0  0  0  0  0  0
   -3.3836    1.4782    0.0000 H   0  0  0  0  0  0  0  0  0  0  0  0
   -4.1570   -0.8000    0.0000 C   0  0  0  0  0  0  0  0  0  0  0  0
   -4.7691   -2.2782    0.0000 H   0  0  0  0  0  0  0  0  0  0  0  0
   -3.5446   -2.2782    0.0000 H   0  0  0  0  0  0  0  0  0  0  0  0
   -5.5427    0.0000    0.0000 C   0  0  0  0  0  0  0  0  0  0  0  0
   -4.9303    1.4782    0.0000 H   0  0  0  0  0  0  0  0  0  0  0  0
   -6.1548    1.4782    0.0000 H   0  0  0  0  0  0  0  0  0  0  0  0
   -6.9281   -0.8000    0.0000 C   0  0  0  0  0  0  0  0  0  0  0  0
   -8.3138   -1.6000    0.0000 H   0  0  0  0  0  0  0  0  0  0  0  0
   -8.3138    0.0000    0.0000 H   0  0  0  0  0  0  0  0  0  0  0  0
   -6.9281   -2.4000    0.0000 H   0  0  0  0  0  0  0  0  0  0  0  0
    1.3856   -0.8000    0.0000 C   0  0  0  0  0  0  0  0  0  0  0  0
    0.7732   -2.2782    0.0000 H   0  0  0  0  0  0  0  0  0  0  0  0
    1.9980   -2.2782    0.0000 H   0  0  0  0  0  0  0  0  0  0  0  0
    2.7713    0.0000    0.0000 C   0  0  0  0  0  0  0  0  0  0  0  0
    3.3835    1.4782    0.0000 H   0  0  0  0  0  0  0  0  0  0  0  0
    2.1589    1.4782    0.0000 H   0  0  0  0  0  0  0  0  0  0  0  0
    4.1570   -0.8000    0.0000 C   0  0  0  0  0  0  0  0  0  0  0  0
    3.5446   -2.2782    0.0000 H   0  0  0  0  0  0  0  0  0  0  0  0
    4.7692   -2.2782    0.0000 H   0  0  0  0  0  0  0  0  0  0  0  0
    5.5425    0.0000    0.0000 C   0  0  0  0  0  0  0  0  0  0  0  0
    6.9282    0.8000    0.0000 H   0  0  0  0  0  0  0  0  0  0  0  0
    6.9282   -0.8000    0.0000 H   0  0  0  0  0  0  0  0  0  0  0  0
    5.5425    1.6000    0.0000 F   0  0  0  0  0  0  0  0  0  0  0  0
  1  2  1  0  0  0  0
  1  3  1  0  0  0  0
  1  4  1  0  0  0  0
  4  5  1  0  0  0  0
  4  6  1  0  0  0  0
  4  7  1  0  0  0  0
  7  8  1  0  0  0  0
  7  9  1  0  0  0  0
  7 10  1  0  0  0  0
 10 11  1  0  0  0  0
 10 12  1  0  0  0  0
 10 13  1  0  0  0  0
 13 14  1  0  0  0  0
 13 15  1  0  0  0  0
 13 16  1  0  0  0  0
 16 17  1  0  0  0  0
 16 18  1  0  0  0  0
 16 19  1  0  0  0  0
  1 20  1  0  0  0  0
 20 21  1  0  0  0  0
 20 22  1  0  0  0  0
 20 23  1  0  0  0  0
 23 24  1  0  0  0  0
 23 25  1  0  0  0  0
 23 26  1  0  0  0  0
 26 27  1  0  0  0  0
 26 28  1  0  0  0  0
 26 29  1  0  0  0  0
 29 30  1  0  0  0  0
 29 31  1  0  0  0  0
 29 32  1  0  0  0  0
M  END
> <ChemID>
101199

> <source_casrn>
334-56-5

> <CAS>
334-56-5

> <SMILES>
CCCCCCCCCCF

> <NAME>
1-FLUORODECANE

> <preferred_name>
Decane, 1-fluoro-

> <iupac>
1-FLUORODECANE

> <MPID>
25823

> <dsstox_substance_id>
DTXSID5059826

> <Canonical_QSARr>
CCCCCCCCCCF

> <InChI_Code_QSARr>
InChI=1S/C10H21F/c1-2-3-4-5-6-7-8-9-10-11/h2-10H2,1H3

> <InChI Key_QSARr>
LHLRHWJTTUCDQA-UHFFFAOYSA-N

> <Salt_Solvent>
?

> <LogVP>
-0.2034

$$$$
101203
  -INDIGO-08031723152D

 26 25  0  0  0  0  0  0  0  0999 V2000
   -5.5426    0.0000    0.0000 C   0  0  0  0  0  0  0  0  0  0  0  0
   -4.1568    0.8000    0.0000 C   0  0  0  0  0  0  0  0  0  0  0  0
   -2.7713    0.0000    0.0000 C   0  0  0  0  0  0  0  0  0  0  0  0
   -1.3855    0.8000    0.0000 C   0  0  0  0  0  0  0  0  0  0  0  0
    0.0000    0.0000    0.0000 C   0  0  0  0  0  0  0  0  0  0  0  0
    1.3857    0.8000    0.0000 C   0  0  0  0  0  0  0  0  0  0  0  0
    2.7713    0.0000    0.0000 C   0  0  0  0  0  0  0  0  0  0  0  0
    4.1570    0.8000    0.0000 C   0  0  0  0  0  0  0  0  0  0  0  0
    5.5426    1.6000    0.0000 F   0  0  0  0  0  0  0  0  0  0  0  0
    5.5426    0.0000    0.0000 F   0  0  0  0  0  0  0  0  0  0  0  0
    4.1570    2.4000    0.0000 F   0  0  0  0  0  0  0  0  0  0  0  0
    2.1590   -1.4782    0.0000 F   0  0  0  0  0  0  0  0  0  0  0  0
    3.3836   -1.4782    0.0000 F   0  0  0  0  0  0  0  0  0  0  0  0
    1.9979    2.2782    0.0000 F   0  0  0  0  0  0  0  0  0  0  0  0
    0.7734    2.2782    0.0000 F   0  0  0  0  0  0  0  0  0  0  0  0
   -0.6123   -1.4782    0.0000 F   0  0  0  0  0  0  0  0  0  0  0  0
    0.6123   -1.4782    0.0000 F   0  0  0  0  0  0  0  0  0  0  0  0
   -0.7734    2.2782    0.0000 F   0  0  0  0  0  0  0  0  0  0  0  0
   -1.9979    2.2782    0.0000 F   0  0  0  0  0  0  0  0  0  0  0  0
   -3.3836   -1.4782    0.0000 F   0  0  0  0  0  0  0  0  0  0  0  0
   -2.1590   -1.4782    0.0000 F   0  0  0  0  0  0  0  0  0  0  0  0
   -3.5447    2.2782    0.0000 F   0  0  0  0  0  0  0  0  0  0  0  0
   -4.7691    2.2782    0.0000 F   0  0  0  0  0  0  0  0  0  0  0  0
   -6.9281    0.8000    0.0000 O   0  0  0  0  0  0  0  0  0  0  0  0
   -8.3138    0.0000    0.0000 H   0  0  0  0  0  0  0  0  0  0  0  0
   -5.5426   -1.6000    0.0000 O   0  0  0  0  0  0  0  0  0  0  0  0
  1  2  1  0  0  0  0
  2  3  1  0  0  0  0
  3  4  1  0  0  0  0
  4  5  1  0  0  0  0
  5  6  1  0  0  0  0
  6  7  1  0  0  0  0
  7  8  1  0  0  0  0
  8  9  1  0  0  0  0
  8 10  1  0  0  0  0
  8 11  1  0  0  0  0
  7 12  1  0  0  0  0
  7 13  1  0  0  0  0
  6 14  1  0  0  0  0
  6 15  1  0  0  0  0
  5 16  1  0  0  0  0
  5 17  1  0  0  0  0
  4 18  1  0  0  0  0
  4 19  1  0  0  0  0
  3 20  1  0  0  0  0
  3 21  1  0  0  0  0
  2 22  1  0  0  0  0
  2 23  1  0  0  0  0
  1 24  1  0  0  0  0
 24 25  1  0  0  0  0
  1 26  2  0  0  0  0
M  END
> <ChemID>
101203

> <source_casrn>
335-67-1

> <CAS>
335-67-1

> <SMILES>
OC(=O)C(F)(F)C(F)(F)C(F)(F)C(F)(F)C(F)(F)C(F)(F)C(F)(F)F

> <NAME>
Perfluorooctanoic Acid

> <preferred_name>
PFOA

> <iupac>
pentadecafluorooctanoic acid

> <MPID>
25827

> <dsstox_substance_id>
DTXSID8031865

> <Canonical_QSARr>
OC(=O)C(F)(F)C(F)(F)C(F)(F)C(F)(F)C(F)(F)C(F)(F)C(F)(F)F

> <InChI_Code_QSARr>
InChI=1S/C8HF15O2/c9-2(10,1(24)25)3(11,12)4(13,14)5(15,16)6(17,18)7(19,20)8(21,22)23/h(H,24,25)

> <InChI Key_QSARr>
SNGREZUHAYWORS-UHFFFAOYSA-N

> <Salt_Solvent>
?

> <LogVP>
-0.2798

$$$$
101207
  -INDIGO-08031723152D

 15 15  0  0  0  0  0  0  0  0999 V2000
    0.0000   -0.0000    0.0000 C   0  0  0  0  0  0  0  0  0  0  0  0
   -0.8001    1.3856    0.0000 C   0  0  0  0  0  0  0  0  0  0  0  0
    0.0000    2.7713    0.0000 H   0  0  0  0  0  0  0  0  0  0  0  0
   -2.4001    1.3856    0.0000 C   0  0  0  0  0  0  0  0  0  0  0  0
   -3.2000    2.7713    0.0000 H   0  0  0  0  0  0  0  0  0  0  0  0
   -3.2000   -0.0000    0.0000 C   0  0  0  0  0  0  0  0  0  0  0  0
   -4.8000   -0.0000    0.0000 F   0  0  0  0  0  0  0  0  0  0  0  0
   -2.4001   -1.3856    0.0000 C   0  0  0  0  0  0  0  0  0  0  0  0
   -3.2000   -2.7713    0.0000 H   0  0  0  0  0  0  0  0  0  0  0  0
   -0.8001   -1.3856    0.0000 C   0  0  0  0  0  0  0  0  0  0  0  0
    0.0000   -2.7713    0.0000 H   0  0  0  0  0  0  0  0  0  0  0  0
    1.6000   -0.0000    0.0000 C   0  0  0  0  0  0  0  0  0  0  0  0
    3.2000   -0.0000    0.0000 H   0  0  0  0  0  0  0  0  0  0  0  0
    2.4001   -1.3856    0.0000 H   0  0  0  0  0  0  0  0  0  0  0  0
    2.4001    1.3856    0.0000 H   0  0  0  0  0  0  0  0  0  0  0  0
  1  2  1  0  0  0  0
  2  3  1  0  0  0  0
  2  4  2  0  0  0  0
  4  5  1  0  0  0  0
  4  6  1  0  0  0  0
  6  7  1  0  0  0  0
  6  8  2  0  0  0  0
  8  9  1  0  0  0  0
  8 10  1  0  0  0  0
 10  1  2  0  0  0  0
 10 11  1  0  0  0  0
  1 12  1  0  0  0  0
 12 13  1  0  0  0  0
 12 14  1  0  0  0  0
 12 15  1  0  0  0  0
M  END
> <ChemID>
101207

> <source_casrn>
352-32-9

> <CAS>
352-32-9

> <SMILES>
Cc1ccc(F)cc1

> <NAME>
P-FLUOROTOLUENE

> <preferred_name>
p-Fluorotoluene

> <iupac>
1-Fluoro-4-methylbenzene

> <MPID>
25831

> <dsstox_substance_id>
DTXSID7059852

> <Canonical_QSARr>
Cc1ccc(F)cc1

> <InChI_Code_QSARr>
InChI=1S/C7H7F/c1-6-2-4-7(8)5-3-6/h2-5H,1H3

> <InChI Key_QSARr>
WRWPPGUCZBJXKX-UHFFFAOYSA-N

> <Salt_Solvent>
?

> <LogVP>
1.3216

$$$$
101211
  -INDIGO-08031723152D

  4  3  0  0  0  0  0  0  0  0999 V2000
    0.0000    0.0000    0.0000 C   0  0  0  0  0  0  0  0  0  0  0  0
    1.3856    0.8000    0.0000 O   0  0  0  0  0  0  0  0  0  0  0  0
   -1.3856    0.8000    0.0000 F   0  0  0  0  0  0  0  0  0  0  0  0
    0.0000   -1.6000    0.0000 F   0  0  0  0  0  0  0  0  0  0  0  0
  1  2  2  0  0  0  0
  1  3  1  0  0  0  0
  1  4  1  0  0  0  0
M  END
> <ChemID>
101211

> <source_casrn>
353-50-4

> <CAS>
353-50-4

> <SMILES>
O=C(F)F

> <NAME>
CARBONIC DIFLUORIDE

> <preferred_name>
Carbonic difluoride

> <iupac>
CARBONYL DIFLUORIDE

> <MPID>
25835

> <dsstox_substance_id>
DTXSID7059858

> <Canonical_QSARr>
O=C(F)F

> <InChI_Code_QSARr>
InChI=1S/CF2O/c2-1(3)4

> <InChI Key_QSARr>
IYRWEQXVUNLMAY-UHFFFAOYSA-N

> <Salt_Solvent>
?

> <LogVP>
4.6488

$$$$
101215
  -INDIGO-08031723152D

  8  7  0  0  0  0  0  0  0  0999 V2000
    0.0000    0.0000    0.0000 C   0  0  0  0  0  0  0  0  0  0  0  0
    1.6000    0.0000    0.0000 C   0  0  0  0  0  0  0  0  0  0  0  0
    3.2000    0.0000    0.0000 F   0  0  0  0  0  0  0  0  0  0  0  0
    2.4000   -1.3856    0.0000 F   0  0  0  0  0  0  0  0  0  0  0  0
    2.4000    1.3856    0.0000 F   0  0  0  0  0  0  0  0  0  0  0  0
   -1.6000   -0.0000    0.0000 Cl  0  0  0  0  0  0  0  0  0  0  0  0
   -0.8000   -1.3856    0.0000 Cl  0  0  0  0  0  0  0  0  0  0  0  0
   -0.8000    1.3856    0.0000 Cl  0  0  0  0  0  0  0  0  0  0  0  0
  1  2  1  0  0  0  0
  2  3  1  0  0  0  0
  2  4  1  0  0  0  0
  2  5  1  0  0  0  0
  1  6  1  0  0  0  0
  1  7  1  0  0  0  0
  1  8  1  0  0  0  0
M  END
> <ChemID>
101215

> <source_casrn>
354-58-5

> <CAS>
354-58-5

> <SMILES>
FC(F)(F)C(Cl)(Cl)Cl

> <NAME>
1,1,1-TRICHLORO-2,2,2-TRIFLUOROETHANE

> <preferred_name>
1,1,1-Trichloro-2,2,2-trifluoroethane

> <iupac>
1,1,1-trichloro-2,2,2-trifluoroethane

> <MPID>
25839

> <dsstox_substance_id>
DTXSID5027148

> <Canonical_QSARr>
FC(F)(F)C(Cl)(Cl)Cl

> <InChI_Code_QSARr>
InChI=1S/C2Cl3F3/c3-1(4,5)2(6,7)8

> <InChI Key_QSARr>
BOSAWIQFTJIYIS-UHFFFAOYSA-N

> <Salt_Solvent>
?

> <LogVP>
2.5563

$$$$
101220
  -INDIGO-08031723152D

 18 18  0  0  0  0  0  0  0  0999 V2000
   -0.0000    0.0000    0.0000 C   0  0  0  0  0  0  0  0  0  0  0  0
    1.3857    0.8000    0.0000 C   0  0  0  0  0  0  0  0  0  0  0  0
    0.3571    2.0257    0.0000 F   0  0  0  0  0  0  0  0  0  0  0  0
    2.4141    2.0257    0.0000 F   0  0  0  0  0  0  0  0  0  0  0  0
    2.7713    0.0000    0.0000 C   0  0  0  0  0  0  0  0  0  0  0  0
    3.3185    1.5035    0.0000 F   0  0  0  0  0  0  0  0  0  0  0  0
    4.3470   -0.2778    0.0000 F   0  0  0  0  0  0  0  0  0  0  0  0
    2.7713   -1.6000    0.0000 C   0  0  0  0  0  0  0  0  0  0  0  0
    4.3470   -1.3222    0.0000 F   0  0  0  0  0  0  0  0  0  0  0  0
    3.3185   -3.1035    0.0000 F   0  0  0  0  0  0  0  0  0  0  0  0
    1.3857   -2.4000    0.0000 C   0  0  0  0  0  0  0  0  0  0  0  0
    2.4141   -3.6257    0.0000 F   0  0  0  0  0  0  0  0  0  0  0  0
    0.3571   -3.6257    0.0000 F   0  0  0  0  0  0  0  0  0  0  0  0
   -0.0000   -1.6000    0.0000 C   0  0  0  0  0  0  0  0  0  0  0  0
   -0.5472   -3.1035    0.0000 F   0  0  0  0  0  0  0  0  0  0  0  0
   -1.5757   -1.3222    0.0000 F   0  0  0  0  0  0  0  0  0  0  0  0
   -1.5757   -0.2778    0.0000 F   0  0  0  0  0  0  0  0  0  0  0  0
   -0.5472    1.5035    0.0000 F   0  0  0  0  0  0  0  0  0  0  0  0
  1  2  1  0  0  0  0
  2  3  1  0  0  0  0
  2  4  1  0  0  0  0
  2  5  1  0  0  0  0
  5  6  1  0  0  0  0
  5  7  1  0  0  0  0
  5  8  1  0  0  0  0
  8  9  1  0  0  0  0
  8 10  1  0  0  0  0
  8 11  1  0  0  0  0
 11 12  1  0  0  0  0
 11 13  1  0  0  0  0
 11 14  1  0  0  0  0
 14  1  1  0  0  0  0
 14 15  1  0  0  0  0
 14 16  1  0  0  0  0
  1 17  1  0  0  0  0
  1 18  1  0  0  0  0
M  END
> <ChemID>
101220

> <source_casrn>
355-68-0

> <CAS>
355-68-0

> <SMILES>
FC1(F)C(F)(F)C(F)(F)C(F)(F)C(F)(F)C1(F)F

> <NAME>
PERFLUOROCYCLOHEXANE

> <preferred_name>
Cyclohexane, dodecafluoro-

> <iupac>
1,1,2,2,3,3,4,4,5,5,6,6-dodecafluorocyclohexane

> <MPID>
25843

> <dsstox_substance_id>
DTXSID5075232

> <Canonical_QSARr>
FC1(F)C(F)(F)C(F)(F)C(F)(F)C(F)(F)C1(F)F

> <InChI_Code_QSARr>
InChI=1S/C6F12/c7-1(8)2(9,10)4(13,14)6(17,18)5(15,16)3(1,11)12

> <InChI Key_QSARr>
RKIMETXDACNTIE-UHFFFAOYSA-N

> <Salt_Solvent>
?

> <LogVP>
2.2339

$$$$
101224
  -INDIGO-08031723152D

 12 11  0  0  0  0  0  0  0  0999 V2000
   -1.3856   -0.8000    0.0000 C   0  0  0  0  0  0  0  0  0  0  0  0
    0.0000    0.0000    0.0000 C   0  0  0  0  0  0  0  0  0  0  0  0
    1.3856   -0.8000    0.0000 C   0  0  0  0  0  0  0  0  0  0  0  0
    2.7713    0.0000    0.0000 C   0  0  0  0  0  0  0  0  0  0  0  0
    4.1569    0.8000    0.0000 F   0  0  0  0  0  0  0  0  0  0  0  0
    4.1569   -0.8000    0.0000 F   0  0  0  0  0  0  0  0  0  0  0  0
    2.7713    1.6000    0.0000 F   0  0  0  0  0  0  0  0  0  0  0  0
    1.3856   -2.4000    0.0000 F   0  0  0  0  0  0  0  0  0  0  0  0
    0.0000    1.6000    0.0000 F   0  0  0  0  0  0  0  0  0  0  0  0
   -2.7713   -1.6000    0.0000 F   0  0  0  0  0  0  0  0  0  0  0  0
   -2.7713    0.0000    0.0000 F   0  0  0  0  0  0  0  0  0  0  0  0
   -1.3856   -2.4000    0.0000 F   0  0  0  0  0  0  0  0  0  0  0  0
  1  2  1  0  0  0  0
  2  3  2  0  0  0  0
  3  4  1  0  0  0  0
  4  5  1  0  0  0  0
  4  6  1  0  0  0  0
  4  7  1  0  0  0  0
  3  8  1  0  0  0  0
  2  9  1  0  0  0  0
  1 10  1  0  0  0  0
  1 11  1  0  0  0  0
  1 12  1  0  0  0  0
M  END
> <ChemID>
101224

> <source_casrn>
360-89-4

> <CAS>
360-89-4

> <SMILES>
FC(F)(F)C(F)=C(F)C(F)(F)F

> <NAME>
OCTAFLUORO-2-BUTENE

> <preferred_name>
2-Butene, 1,1,1,2,3,4,4,4-octafluoro-

> <iupac>


> <MPID>
25847

> <dsstox_substance_id>
DTXSID3059890

> <Canonical_QSARr>
FC(F)(F)C(F)=C(F)C(F)(F)F

> <InChI_Code_QSARr>
InChI=1S/C4F8/c5-1(3(7,8)9)2(6)4(10,11)12/b2-1+

> <InChI Key_QSARr>
WSJULBMCKQTTIG-OWOJBTEDSA-N

> <Salt_Solvent>
?

> <LogVP>
3.3017

$$$$
101228
  -INDIGO-08031723152D

 27 26  0  0  0  0  0  0  0  0999 V2000
    2.7712    0.0000    0.0000 P   0  0  0  0  0  0  0  0  0  0  0  0
    4.1569    0.8000    0.0000 N   0  0  0  0  0  0  0  0  0  0  0  0
    4.1569    2.4000    0.0000 H   0  0  0  0  0  0  0  0  0  0  0  0
    5.5425    0.0000    0.0000 C   0  0  0  0  0  0  0  0  0  0  0  0
    4.7426   -1.3856    0.0000 H   0  0  0  0  0  0  0  0  0  0  0  0
    6.9282   -0.8000    0.0000 C   0  0  0  0  0  0  0  0  0  0  0  0
    8.3138   -1.6000    0.0000 H   0  0  0  0  0  0  0  0  0  0  0  0
    8.3138    0.0000    0.0000 H   0  0  0  0  0  0  0  0  0  0  0  0
    6.9282   -2.4000    0.0000 H   0  0  0  0  0  0  0  0  0  0  0  0
    6.3426    1.3856    0.0000 C   0  0  0  0  0  0  0  0  0  0  0  0
    7.1425    2.7713    0.0000 H   0  0  0  0  0  0  0  0  0  0  0  0
    7.9426    1.3856    0.0000 H   0  0  0  0  0  0  0  0  0  0  0  0
    5.5425    2.7713    0.0000 H   0  0  0  0  0  0  0  0  0  0  0  0
    1.3857    0.8000    0.0000 N   0  0  0  0  0  0  0  0  0  0  0  0
    1.3857    2.4000    0.0000 H   0  0  0  0  0  0  0  0  0  0  0  0
    0.0000    0.0000    0.0000 C   0  0  0  0  0  0  0  0  0  0  0  0
    0.7999   -1.3856    0.0000 H   0  0  0  0  0  0  0  0  0  0  0  0
   -1.3856   -0.8000    0.0000 C   0  0  0  0  0  0  0  0  0  0  0  0
   -2.7713   -1.6000    0.0000 H   0  0  0  0  0  0  0  0  0  0  0  0
   -1.3856   -2.4000    0.0000 H   0  0  0  0  0  0  0  0  0  0  0  0
   -2.7713    0.0000    0.0000 H   0  0  0  0  0  0  0  0  0  0  0  0
   -0.8000    1.3856    0.0000 C   0  0  0  0  0  0  0  0  0  0  0  0
   -1.5999    2.7713    0.0000 H   0  0  0  0  0  0  0  0  0  0  0  0
    0.0000    2.7713    0.0000 H   0  0  0  0  0  0  0  0  0  0  0  0
   -2.4000    1.3856    0.0000 H   0  0  0  0  0  0  0  0  0  0  0  0
    3.3835   -1.4782    0.0000 O   0  0  0  0  0  0  0  0  0  0  0  0
    2.1590   -1.4782    0.0000 F   0  0  0  0  0  0  0  0  0  0  0  0
  1  2  1  0  0  0  0
  2  3  1  0  0  0  0
  2  4  1  0  0  0  0
  4  5  1  0  0  0  0
  4  6  1  0  0  0  0
  6  7  1  0  0  0  0
  6  8  1  0  0  0  0
  6  9  1  0  0  0  0
  4 10  1  0  0  0  0
 10 11  1  0  0  0  0
 10 12  1  0  0  0  0
 10 13  1  0  0  0  0
  1 14  1  0  0  0  0
 14 15  1  0  0  0  0
 14 16  1  0  0  0  0
 16 17  1  0  0  0  0
 16 18  1  0  0  0  0
 18 19  1  0  0  0  0
 18 20  1  0  0  0  0
 18 21  1  0  0  0  0
 16 22  1  0  0  0  0
 22 23  1  0  0  0  0
 22 24  1  0  0  0  0
 22 25  1  0  0  0  0
  1 26  2  0  0  0  0
  1 27  1  0  0  0  0
M  END
> <ChemID>
101228

> <source_casrn>
371-86-8

> <CAS>
371-86-8

> <SMILES>
CC(C)NP(=O)(F)NC(C)C

> <NAME>
ISOPESTOX

> <preferred_name>
Mipafox

> <iupac>
N,N'-dipropan-2-ylphosphorodiamidic fluoride

> <MPID>
25851

> <dsstox_substance_id>
DTXSID5042160

> <Canonical_QSARr>
CC(C)NP(=O)(F)NC(C)C

> <InChI_Code_QSARr>
InChI=1S/C6H16FN2OP/c1-5(2)8-11(7,10)9-6(3)4/h5-6H,1-4H3,(H2,8,9,10)

> <InChI Key_QSARr>
UOSHUBFBCPGQAY-UHFFFAOYSA-N

> <Salt_Solvent>
?

> <LogVP>
-3.0

$$$$
101232
  -INDIGO-08031723152D

 12 11  0  0  0  0  0  0  0  0999 V2000
    2.4000    1.3856    0.0000 F   0  0  0  0  0  0  0  0  0  0  0  0
    1.6000    0.0000    0.0000 C   0  0  0  0  0  0  0  0  0  0  0  0
    3.2000    0.0000    0.0000 F   0  0  0  0  0  0  0  0  0  0  0  0
    2.4000   -1.3856    0.0000 F   0  0  0  0  0  0  0  0  0  0  0  0
    0.0000    0.0000    0.0000 C   0  0  0  0  0  0  0  0  0  0  0  0
    0.0000   -1.6000    0.0000 H   0  0  0  0  0  0  0  0  0  0  0  0
    0.0000    1.6000    0.0000 O   0  0  0  0  0  0  0  0  0  0  0  0
    1.3856    2.4000    0.0000 H   0  0  0  0  0  0  0  0  0  0  0  0
   -1.6000    0.0000    0.0000 C   0  0  0  0  0  0  0  0  0  0  0  0
   -3.2000    0.0000    0.0000 H   0  0  0  0  0  0  0  0  0  0  0  0
   -2.4000   -1.3856    0.0000 H   0  0  0  0  0  0  0  0  0  0  0  0
   -2.4000    1.3856    0.0000 H   0  0  0  0  0  0  0  0  0  0  0  0
  1  2  1  0  0  0  0
  2  3  1  0  0  0  0
  2  4  1  0  0  0  0
  2  5  1  0  0  0  0
  5  6  1  0  0  0  0
  5  7  1  0  0  0  0
  7  8  1  0  0  0  0
  5  9  1  0  0  0  0
  9 10  1  0  0  0  0
  9 11  1  0  0  0  0
  9 12  1  0  0  0  0
M  END
> <ChemID>
101232

> <source_casrn>
374-01-6

> <CAS>
3539-97-7

> <SMILES>
C[C@H](O)C(F)(F)F

> <NAME>
1,1,1-TRIFLUORO-2-PROPANOL

> <preferred_name>
3539-97-7

> <iupac>
C3H5F3O

> <MPID>
25855

> <dsstox_substance_id>
DTXSID10426459

> <Canonical_QSARr>
CC(O)C(F)(F)F

> <InChI_Code_QSARr>
InChI=1S/C3H5F3O/c1-2(7)3(4,5)6/h2,7H,1H3

> <InChI Key_QSARr>
GILIYJDBJZWGBG-UHFFFAOYSA-N

> <Salt_Solvent>
?

> <LogVP>
1.7847

$$$$
101236
  -INDIGO-08031723152D

 23 22  0  0  0  0  0  0  0  0999 V2000
   -4.1569    0.8000    0.0000 C   0  0  0  0  0  0  0  0  0  0  0  0
   -2.7713    0.0000    0.0000 C   0  0  0  0  0  0  0  0  0  0  0  0
   -1.3856    0.8000    0.0000 C   0  0  0  0  0  0  0  0  0  0  0  0
    0.0001    0.0000    0.0000 C   0  0  0  0  0  0  0  0  0  0  0  0
    1.3856    0.8000    0.0000 C   0  0  0  0  0  0  0  0  0  0  0  0
    2.7713    0.0000    0.0000 C   0  0  0  0  0  0  0  0  0  0  0  0
    4.1570    0.8000    0.0000 C   0  0  0  0  0  0  0  0  0  0  0  0
    5.5425    0.0000    0.0000 O   0  0  0  0  0  0  0  0  0  0  0  0
    6.9282    0.8000    0.0000 H   0  0  0  0  0  0  0  0  0  0  0  0
    4.1570    2.4000    0.0000 O   0  0  0  0  0  0  0  0  0  0  0  0
    2.1589   -1.4782    0.0000 F   0  0  0  0  0  0  0  0  0  0  0  0
    3.3836   -1.4782    0.0000 F   0  0  0  0  0  0  0  0  0  0  0  0
    1.9979    2.2782    0.0000 F   0  0  0  0  0  0  0  0  0  0  0  0
    0.7734    2.2782    0.0000 F   0  0  0  0  0  0  0  0  0  0  0  0
   -0.6123   -1.4782    0.0000 F   0  0  0  0  0  0  0  0  0  0  0  0
    0.6122   -1.4782    0.0000 F   0  0  0  0  0  0  0  0  0  0  0  0
   -0.7733    2.2782    0.0000 F   0  0  0  0  0  0  0  0  0  0  0  0
   -1.9980    2.2782    0.0000 F   0  0  0  0  0  0  0  0  0  0  0  0
   -3.3835   -1.4782    0.0000 F   0  0  0  0  0  0  0  0  0  0  0  0
   -2.1590   -1.4782    0.0000 F   0  0  0  0  0  0  0  0  0  0  0  0
   -5.5426    1.6000    0.0000 F   0  0  0  0  0  0  0  0  0  0  0  0
   -5.5426    0.0000    0.0000 F   0  0  0  0  0  0  0  0  0  0  0  0
   -4.1569    2.4000    0.0000 F   0  0  0  0  0  0  0  0  0  0  0  0
  1  2  1  0  0  0  0
  2  3  1  0  0  0  0
  3  4  1  0  0  0  0
  4  5  1  0  0  0  0
  5  6  1  0  0  0  0
  6  7  1  0  0  0  0
  7  8  1  0  0  0  0
  8  9  1  0  0  0  0
  7 10  2  0  0  0  0
  6 11  1  0  0  0  0
  6 12  1  0  0  0  0
  5 13  1  0  0  0  0
  5 14  1  0  0  0  0
  4 15  1  0  0  0  0
  4 16  1  0  0  0  0
  3 17  1  0  0  0  0
  3 18  1  0  0  0  0
  2 19  1  0  0  0  0
  2 20  1  0  0  0  0
  1 21  1  0  0  0  0
  1 22  1  0  0  0  0
  1 23  1  0  0  0  0
M  END
> <ChemID>
101236

> <source_casrn>
375-85-9

> <CAS>
375-85-9

> <SMILES>
OC(=O)C(F)(F)C(F)(F)C(F)(F)C(F)(F)C(F)(F)C(F)(F)F

> <NAME>
Heptanoic acid, tridecafluoro-

> <preferred_name>
Perfluoroheptanoic acid

> <iupac>
tridecafluoroheptanoic acid

> <MPID>
25859

> <dsstox_substance_id>
DTXSID1037303

> <Canonical_QSARr>
OC(=O)C(F)(F)C(F)(F)C(F)(F)C(F)(F)C(F)(F)C(F)(F)F

> <InChI_Code_QSARr>
InChI=1S/C7HF13O2/c8-2(9,1(21)22)3(10,11)4(12,13)5(14,15)6(16,17)7(18,19)20/h(H,21,22)

> <InChI Key_QSARr>
ZWBAMYVPMDSJGQ-UHFFFAOYSA-N

> <Salt_Solvent>
?

> <LogVP>
-0.8761

$$$$
101240
  -INDIGO-08031723152D

 13 12  0  0  0  0  0  0  0  0999 V2000
    1.3856   -0.8000    0.0000 C   0  0  0  0  0  0  0  0  0  0  0  0
    1.3856   -2.4000    0.0000 O   0  0  0  0  0  0  0  0  0  0  0  0
    2.7712    0.0000    0.0000 O   0  0  0  0  0  0  0  0  0  0  0  0
    4.1569   -0.8000    0.0000 C   0  0  0  0  0  0  0  0  0  0  0  0
    4.1569   -2.4000    0.0000 O   0  0  0  0  0  0  0  0  0  0  0  0
    5.5425    0.0000    0.0000 C   0  0  0  0  0  0  0  0  0  0  0  0
    6.9282    0.8000    0.0000 F   0  0  0  0  0  0  0  0  0  0  0  0
    6.9282   -0.8000    0.0000 F   0  0  0  0  0  0  0  0  0  0  0  0
    5.5425    1.6000    0.0000 F   0  0  0  0  0  0  0  0  0  0  0  0
   -0.0001    0.0000    0.0000 C   0  0  0  0  0  0  0  0  0  0  0  0
   -1.3856    0.8000    0.0000 F   0  0  0  0  0  0  0  0  0  0  0  0
   -0.0001    1.6000    0.0000 F   0  0  0  0  0  0  0  0  0  0  0  0
   -1.3856   -0.8000    0.0000 F   0  0  0  0  0  0  0  0  0  0  0  0
  1  2  2  0  0  0  0
  1  3  1  0  0  0  0
  3  4  1  0  0  0  0
  4  5  2  0  0  0  0
  4  6  1  0  0  0  0
  6  7  1  0  0  0  0
  6  8  1  0  0  0  0
  6  9  1  0  0  0  0
  1 10  1  0  0  0  0
 10 11  1  0  0  0  0
 10 12  1  0  0  0  0
 10 13  1  0  0  0  0
M  END
> <ChemID>
101240

> <source_casrn>
407-25-0

> <CAS>
NOCAS_861920

> <SMILES>
O=C(OC(=O)C(F)(F)F)C(F)(F)F

> <NAME>
TRIFLUOROACETIC ANHYDRIDE

> <preferred_name>


> <iupac>


> <MPID>
25863

> <dsstox_substance_id>
DTXSID90861920

> <Canonical_QSARr>
O=C(OC(=O)C(F)(F)F)C(F)(F)F

> <InChI_Code_QSARr>
InChI=1S/C4F6O3/c5-3(6,7)1(11)13-2(12)4(8,9)10

> <InChI Key_QSARr>
QAEDZJGFFMLHHQ-UHFFFAOYSA-N

> <Salt_Solvent>
?

> <LogVP>
1.6149

$$$$
101244
  -INDIGO-08031723152D

  8  7  0  0  0  0  0  0  0  0999 V2000
    0.0000    0.0000    0.0000 C   0  0  0  0  0  0  0  0  0  0  0  0
    1.6000    0.0000    0.0000 C   0  0  0  0  0  0  0  0  0  0  0  0
    3.2000    0.0000    0.0000 H   0  0  0  0  0  0  0  0  0  0  0  0
    2.4000   -1.3856    0.0000 H   0  0  0  0  0  0  0  0  0  0  0  0
    2.4000    1.3856    0.0000 H   0  0  0  0  0  0  0  0  0  0  0  0
   -1.6000   -0.0000    0.0000 F   0  0  0  0  0  0  0  0  0  0  0  0
   -0.8000   -1.3856    0.0000 F   0  0  0  0  0  0  0  0  0  0  0  0
   -0.8000    1.3856    0.0000 F   0  0  0  0  0  0  0  0  0  0  0  0
  1  2  1  0  0  0  0
  2  3  1  0  0  0  0
  2  4  1  0  0  0  0
  2  5  1  0  0  0  0
  1  6  1  0  0  0  0
  1  7  1  0  0  0  0
  1  8  1  0  0  0  0
M  END
> <ChemID>
101244

> <source_casrn>
420-46-2

> <CAS>
420-46-2

> <SMILES>
CC(F)(F)F

> <NAME>
1,1,1-TRIFLUOROETHANE

> <preferred_name>
1,1,1-trifluoroethane

> <iupac>
1,1,1-trifluoroethane

> <MPID>
25867

> <dsstox_substance_id>
DTXSID9042047

> <Canonical_QSARr>
CC(F)(F)F

> <InChI_Code_QSARr>
InChI=1S/C2H3F3/c1-2(3,4)5/h1H3

> <InChI Key_QSARr>
UJPMYEOUBPIPHQ-UHFFFAOYSA-N

> <Salt_Solvent>
?

> <LogVP>
3.9794

$$$$
101248
  -INDIGO-08031723152D

 12 11  0  0  0  0  0  0  0  0999 V2000
    1.3856   -0.8000    0.0000 C   0  0  0  0  0  0  0  0  0  0  0  0
    2.7713   -1.6000    0.0000 H   0  0  0  0  0  0  0  0  0  0  0  0
    2.7713    0.0000    0.0000 H   0  0  0  0  0  0  0  0  0  0  0  0
    1.3856   -2.4000    0.0000 H   0  0  0  0  0  0  0  0  0  0  0  0
    0.0000    0.0000    0.0000 C   0  0  0  0  0  0  0  0  0  0  0  0
   -1.3856   -0.8000    0.0000 C   0  0  0  0  0  0  0  0  0  0  0  0
   -2.7713    0.0000    0.0000 C   0  0  0  0  0  0  0  0  0  0  0  0
   -4.1569    0.8000    0.0000 H   0  0  0  0  0  0  0  0  0  0  0  0
   -4.1569   -0.8000    0.0000 H   0  0  0  0  0  0  0  0  0  0  0  0
   -2.7713    1.6000    0.0000 H   0  0  0  0  0  0  0  0  0  0  0  0
   -1.3856   -2.4000    0.0000 O   0  0  0  0  0  0  0  0  0  0  0  0
    0.0000    1.6000    0.0000 O   0  0  0  0  0  0  0  0  0  0  0  0
  1  2  1  0  0  0  0
  1  3  1  0  0  0  0
  1  4  1  0  0  0  0
  1  5  1  0  0  0  0
  5  6  1  0  0  0  0
  6  7  1  0  0  0  0
  7  8  1  0  0  0  0
  7  9  1  0  0  0  0
  7 10  1  0  0  0  0
  6 11  2  0  0  0  0
  5 12  2  0  0  0  0
M  END
> <ChemID>
101248

> <source_casrn>
431-03-8

> <CAS>
431-03-8

> <SMILES>
CC(=O)C(C)=O

> <NAME>
2,3-BUTANEDIONE

> <preferred_name>
2,3-Butanedione

> <iupac>
butane-2,3-dione

> <MPID>
25871

> <dsstox_substance_id>
DTXSID6021583

> <Canonical_QSARr>
CC(=O)C(C)=O

> <InChI_Code_QSARr>
InChI=1S/C4H6O2/c1-3(5)4(2)6/h1-2H3

> <InChI Key_QSARr>
QSJXEFYPDANLFS-UHFFFAOYSA-N

> <Salt_Solvent>
?

> <LogVP>
1.7545

$$$$
101252
  -INDIGO-08031723152D

 27 28  0  0  0  0  0  0  0  0999 V2000
   -0.8000   -1.3856    0.0000 C   0  0  0  0  0  0  0  0  0  0  0  0
    0.0000    0.0000    0.0000 C   0  0  0  0  0  0  0  0  0  0  0  0
   -0.2088    1.5863    0.0000 H   0  0  0  0  0  0  0  0  0  0  0  0
   -1.2694    0.9740    0.0000 H   0  0  0  0  0  0  0  0  0  0  0  0
    1.6000    0.0000    0.0000 C   0  0  0  0  0  0  0  0  0  0  0  0
    2.4000    1.3856    0.0000 C   0  0  0  0  0  0  0  0  0  0  0  0
    1.6000    2.7713    0.0000 H   0  0  0  0  0  0  0  0  0  0  0  0
    4.0000    1.3856    0.0000 C   0  0  0  0  0  0  0  0  0  0  0  0
    4.8000    2.7713    0.0000 H   0  0  0  0  0  0  0  0  0  0  0  0
    4.8000    0.0000    0.0000 C   0  0  0  0  0  0  0  0  0  0  0  0
    6.4000    0.0000    0.0000 H   0  0  0  0  0  0  0  0  0  0  0  0
    4.0000   -1.3856    0.0000 C   0  0  0  0  0  0  0  0  0  0  0  0
    4.8000   -2.7713    0.0000 H   0  0  0  0  0  0  0  0  0  0  0  0
    2.4000   -1.3856    0.0000 C   0  0  0  0  0  0  0  0  0  0  0  0
    1.6000   -2.7713    0.0000 H   0  0  0  0  0  0  0  0  0  0  0  0
    0.0000   -2.7713    0.0000 O   0  0  0  0  0  0  0  0  0  0  0  0
   -2.4000   -1.3856    0.0000 C   0  0  0  0  0  0  0  0  0  0  0  0
   -3.2000   -2.7713    0.0000 C   0  0  0  0  0  0  0  0  0  0  0  0
   -2.4000   -4.1569    0.0000 H   0  0  0  0  0  0  0  0  0  0  0  0
   -4.8000   -2.7713    0.0000 C   0  0  0  0  0  0  0  0  0  0  0  0
   -5.6000   -4.1569    0.0000 H   0  0  0  0  0  0  0  0  0  0  0  0
   -5.6000   -1.3856    0.0000 C   0  0  0  0  0  0  0  0  0  0  0  0
   -7.2000   -1.3856    0.0000 H   0  0  0  0  0  0  0  0  0  0  0  0
   -4.8000    0.0000    0.0000 C   0  0  0  0  0  0  0  0  0  0  0  0
   -5.6000    1.3856    0.0000 H   0  0  0  0  0  0  0  0  0  0  0  0
   -3.2000    0.0000    0.0000 C   0  0  0  0  0  0  0  0  0  0  0  0
   -2.4000    1.3856    0.0000 H   0  0  0  0  0  0  0  0  0  0  0  0
  1  2  1  0  0  0  0
  2  3  1  0  0  0  0
  2  4  1  0  0  0  0
  2  5  1  0  0  0  0
  5  6  1  0  0  0  0
  6  7  1  0  0  0  0
  6  8  2  0  0  0  0
  8  9  1  0  0  0  0
  8 10  1  0  0  0  0
 10 11  1  0  0  0  0
 10 12  2  0  0  0  0
 12 13  1  0  0  0  0
 12 14  1  0  0  0  0
 14  5  2  0  0  0  0
 14 15  1  0  0  0  0
  1 16  2  0  0  0  0
  1 17  1  0  0  0  0
 17 18  1  0  0  0  0
 18 19  1  0  0  0  0
 18 20  2  0  0  0  0
 20 21  1  0  0  0  0
 20 22  1  0  0  0  0
 22 23  1  0  0  0  0
 22 24  2  0  0  0  0
 24 25  1  0  0  0  0
 24 26  1  0  0  0  0
 26 17  2  0  0  0  0
 26 27  1  0  0  0  0
M  END
> <ChemID>
101252

> <source_casrn>
451-40-1

> <CAS>
451-40-1

> <SMILES>
O=C(Cc1ccccc1)c1ccccc1

> <NAME>
2-PHENYLACETOPHENONE

> <preferred_name>
1,2-Diphenylethanone

> <iupac>
1,2-diphenylethanone

> <MPID>
25875

> <dsstox_substance_id>
DTXSID6044430

> <Canonical_QSARr>
O=C(Cc1ccccc1)c1ccccc1

> <InChI_Code_QSARr>
InChI=1S/C14H12O/c15-14(13-9-5-2-6-10-13)11-12-7-3-1-4-8-12/h1-10H,11H2

> <InChI Key_QSARr>
OTKCEEWUXHVZQI-UHFFFAOYSA-N

> <Salt_Solvent>
?

> <LogVP>
-3.7354

$$$$
101256
  -INDIGO-08031723152D

  4  3  0  0  0  0  0  0  0  0999 V2000
   -1.6000    0.0000    0.0000 N   0  0  0  0  0  0  0  0  0  0  0  0
    0.0000    0.0000    0.0000 C   0  0  0  0  0  0  0  0  0  0  0  0
    1.6000    0.0000    0.0000 C   0  0  0  0  0  0  0  0  0  0  0  0
    3.2000    0.0000    0.0000 N   0  0  0  0  0  0  0  0  0  0  0  0
  1  2  3  0  0  0  0
  2  3  1  0  0  0  0
  3  4  3  0  0  0  0
M  END
> <ChemID>
101256

> <source_casrn>
460-19-5

> <CAS>
460-19-5

> <SMILES>
N#CC#N

> <NAME>
CYANOGEN

> <preferred_name>
Cyanogen

> <iupac>
ethanedinitrilato

> <MPID>
25879

> <dsstox_substance_id>
DTXSID1023992

> <Canonical_QSARr>
N#CC#N

> <InChI_Code_QSARr>
InChI=1S/C2N2/c3-1-2-4

> <InChI Key_QSARr>
JMANVNJQNLATNU-UHFFFAOYSA-N

> <Salt_Solvent>
?

> <LogVP>
3.6337

$$$$
101260
  -INDIGO-08031723152D

 40 39  0  0  0  0  0  0  0  0999 V2000
    4.1569    0.8000    0.0000 C   0  0  0  0  0  0  0  0  0  0  0  0
    5.5426    1.6000    0.0000 H   0  0  0  0  0  0  0  0  0  0  0  0
    5.5426    0.0000    0.0000 H   0  0  0  0  0  0  0  0  0  0  0  0
    4.1569    2.4000    0.0000 H   0  0  0  0  0  0  0  0  0  0  0  0
    2.7713    0.0000    0.0000 C   0  0  0  0  0  0  0  0  0  0  0  0
    2.1589   -1.4782    0.0000 H   0  0  0  0  0  0  0  0  0  0  0  0
    3.3835   -1.4782    0.0000 H   0  0  0  0  0  0  0  0  0  0  0  0
    1.3857    0.8000    0.0000 C   0  0  0  0  0  0  0  0  0  0  0  0
    1.9979    2.2782    0.0000 H   0  0  0  0  0  0  0  0  0  0  0  0
    0.7733    2.2782    0.0000 H   0  0  0  0  0  0  0  0  0  0  0  0
    0.0001    0.0000    0.0000 C   0  0  0  0  0  0  0  0  0  0  0  0
   -0.6124   -1.4782    0.0000 H   0  0  0  0  0  0  0  0  0  0  0  0
    0.6122   -1.4782    0.0000 H   0  0  0  0  0  0  0  0  0  0  0  0
   -1.3855    0.8000    0.0000 C   0  0  0  0  0  0  0  0  0  0  0  0
   -0.7734    2.2782    0.0000 H   0  0  0  0  0  0  0  0  0  0  0  0
   -1.9980    2.2782    0.0000 H   0  0  0  0  0  0  0  0  0  0  0  0
   -2.7712    0.0000    0.0000 C   0  0  0  0  0  0  0  0  0  0  0  0
   -3.3836   -1.4782    0.0000 H   0  0  0  0  0  0  0  0  0  0  0  0
   -2.1590   -1.4782    0.0000 H   0  0  0  0  0  0  0  0  0  0  0  0
   -4.1568    0.8000    0.0000 C   0  0  0  0  0  0  0  0  0  0  0  0
   -4.1568    2.4000    0.0000 O   0  0  0  0  0  0  0  0  0  0  0  0
   -5.5427    0.0000    0.0000 C   0  0  0  0  0  0  0  0  0  0  0  0
   -6.1548   -1.4782    0.0000 H   0  0  0  0  0  0  0  0  0  0  0  0
   -4.9302   -1.4782    0.0000 H   0  0  0  0  0  0  0  0  0  0  0  0
   -6.9283    0.8000    0.0000 C   0  0  0  0  0  0  0  0  0  0  0  0
   -6.3159    2.2782    0.0000 H   0  0  0  0  0  0  0  0  0  0  0  0
   -7.5405    2.2782    0.0000 H   0  0  0  0  0  0  0  0  0  0  0  0
   -8.3139    0.0000    0.0000 C   0  0  0  0  0  0  0  0  0  0  0  0
   -8.9261   -1.4782    0.0000 H   0  0  0  0  0  0  0  0  0  0  0  0
   -7.7015   -1.4782    0.0000 H   0  0  0  0  0  0  0  0  0  0  0  0
   -9.6995    0.8000    0.0000 C   0  0  0  0  0  0  0  0  0  0  0  0
   -9.0871    2.2782    0.0000 H   0  0  0  0  0  0  0  0  0  0  0  0
  -10.3117    2.2782    0.0000 H   0  0  0  0  0  0  0  0  0  0  0  0
  -11.0852    0.0000    0.0000 C   0  0  0  0  0  0  0  0  0  0  0  0
  -11.6973   -1.4782    0.0000 H   0  0  0  0  0  0  0  0  0  0  0  0
  -10.4727   -1.4782    0.0000 H   0  0  0  0  0  0  0  0  0  0  0  0
  -12.4708    0.8000    0.0000 C   0  0  0  0  0  0  0  0  0  0  0  0
  -13.8564    1.6000    0.0000 H   0  0  0  0  0  0  0  0  0  0  0  0
  -13.8564    0.0000    0.0000 H   0  0  0  0  0  0  0  0  0  0  0  0
  -12.4708    2.4000    0.0000 H   0  0  0  0  0  0  0  0  0  0  0  0
  1  2  1  0  0  0  0
  1  3  1  0  0  0  0
  1  4  1  0  0  0  0
  1  5  1  0  0  0  0
  5  6  1  0  0  0  0
  5  7  1  0  0  0  0
  5  8  1  0  0  0  0
  8  9  1  0  0  0  0
  8 10  1  0  0  0  0
  8 11  1  0  0  0  0
 11 12  1  0  0  0  0
 11 13  1  0  0  0  0
 11 14  1  0  0  0  0
 14 15  1  0  0  0  0
 14 16  1  0  0  0  0
 14 17  1  0  0  0  0
 17 18  1  0  0  0  0
 17 19  1  0  0  0  0
 17 20  1  0  0  0  0
 20 21  2  0  0  0  0
 20 22  1  0  0  0  0
 22 23  1  0  0  0  0
 22 24  1  0  0  0  0
 22 25  1  0  0  0  0
 25 26  1  0  0  0  0
 25 27  1  0  0  0  0
 25 28  1  0  0  0  0
 28 29  1  0  0  0  0
 28 30  1  0  0  0  0
 28 31  1  0  0  0  0
 31 32  1  0  0  0  0
 31 33  1  0  0  0  0
 31 34  1  0  0  0  0
 34 35  1  0  0  0  0
 34 36  1  0  0  0  0
 34 37  1  0  0  0  0
 37 38  1  0  0  0  0
 37 39  1  0  0  0  0
 37 40  1  0  0  0  0
M  END
> <ChemID>
101260

> <source_casrn>
462-18-0

> <CAS>
462-18-0

> <SMILES>
CCCCCCC(=O)CCCCCC

> <NAME>
TRIDECAN-7-ONE

> <preferred_name>
7-Tridecanone

> <iupac>
tridecan-7-one

> <MPID>
25883

> <dsstox_substance_id>
DTXSID8022034

> <Canonical_QSARr>
CCCCCCC(=O)CCCCCC

> <InChI_Code_QSARr>
InChI=1S/C13H26O/c1-3-5-7-9-11-13(14)12-10-8-6-4-2/h3-12H2,1-2H3

> <InChI Key_QSARr>
ULIAPOFMBCCSPE-UHFFFAOYSA-N

> <Salt_Solvent>
?

> <LogVP>
-2.1752

$$$$
101264
  -INDIGO-08031723152D

 50 49  0  0  0  0  0  0  0  0999 V2000
   -5.5428    0.0000    0.0000 C   0  0  0  0  0  0  0  0  0  0  0  0
   -4.1570    0.8000    0.0000 C   0  0  0  0  0  0  0  0  0  0  0  0
   -4.7693    2.2782    0.0000 H   0  0  0  0  0  0  0  0  0  0  0  0
   -3.5447    2.2782    0.0000 H   0  0  0  0  0  0  0  0  0  0  0  0
   -2.7713    0.0000    0.0000 C   0  0  0  0  0  0  0  0  0  0  0  0
   -2.1590   -1.4782    0.0000 H   0  0  0  0  0  0  0  0  0  0  0  0
   -3.3836   -1.4782    0.0000 H   0  0  0  0  0  0  0  0  0  0  0  0
   -1.3855    0.8000    0.0000 C   0  0  0  0  0  0  0  0  0  0  0  0
   -1.9979    2.2782    0.0000 H   0  0  0  0  0  0  0  0  0  0  0  0
   -0.7732    2.2782    0.0000 H   0  0  0  0  0  0  0  0  0  0  0  0
   -0.0002    0.0000    0.0000 C   0  0  0  0  0  0  0  0  0  0  0  0
    0.6121   -1.4782    0.0000 H   0  0  0  0  0  0  0  0  0  0  0  0
   -0.6121   -1.4782    0.0000 H   0  0  0  0  0  0  0  0  0  0  0  0
    1.3855    0.8000    0.0000 C   0  0  0  0  0  0  0  0  0  0  0  0
    0.7732    2.2782    0.0000 H   0  0  0  0  0  0  0  0  0  0  0  0
    1.9979    2.2782    0.0000 H   0  0  0  0  0  0  0  0  0  0  0  0
    2.7713    0.0000    0.0000 C   0  0  0  0  0  0  0  0  0  0  0  0
    3.3836   -1.4782    0.0000 H   0  0  0  0  0  0  0  0  0  0  0  0
    2.1590   -1.4782    0.0000 H   0  0  0  0  0  0  0  0  0  0  0  0
    4.1570    0.8000    0.0000 C   0  0  0  0  0  0  0  0  0  0  0  0
    3.5447    2.2782    0.0000 H   0  0  0  0  0  0  0  0  0  0  0  0
    4.7693    2.2782    0.0000 H   0  0  0  0  0  0  0  0  0  0  0  0
    5.5424    0.0000    0.0000 C   0  0  0  0  0  0  0  0  0  0  0  0
    5.5424   -1.6000    0.0000 H   0  0  0  0  0  0  0  0  0  0  0  0
    6.9281    0.8000    0.0000 C   0  0  0  0  0  0  0  0  0  0  0  0
    6.9281    2.4000    0.0000 H   0  0  0  0  0  0  0  0  0  0  0  0
    8.3138    0.0000    0.0000 C   0  0  0  0  0  0  0  0  0  0  0  0
    8.9262   -1.4782    0.0000 H   0  0  0  0  0  0  0  0  0  0  0  0
    7.7015   -1.4782    0.0000 H   0  0  0  0  0  0  0  0  0  0  0  0
    9.6996    0.8000    0.0000 C   0  0  0  0  0  0  0  0  0  0  0  0
    9.6996    2.4000    0.0000 H   0  0  0  0  0  0  0  0  0  0  0  0
   11.0853    0.0000    0.0000 C   0  0  0  0  0  0  0  0  0  0  0  0
   11.0853   -1.6000    0.0000 H   0  0  0  0  0  0  0  0  0  0  0  0
   12.4707    0.8000    0.0000 C   0  0  0  0  0  0  0  0  0  0  0  0
   11.8583    2.2782    0.0000 H   0  0  0  0  0  0  0  0  0  0  0  0
   13.0830    2.2782    0.0000 H   0  0  0  0  0  0  0  0  0  0  0  0
   13.8564    0.0000    0.0000 C   0  0  0  0  0  0  0  0  0  0  0  0
   13.8564   -1.6000    0.0000 H   0  0  0  0  0  0  0  0  0  0  0  0
   15.2422    0.8000    0.0000 C   0  0  0  0  0  0  0  0  0  0  0  0
   15.2422    2.4000    0.0000 H   0  0  0  0  0  0  0  0  0  0  0  0
   16.6279    0.0000    0.0000 C   0  0  0  0  0  0  0  0  0  0  0  0
   17.2398   -1.4782    0.0000 H   0  0  0  0  0  0  0  0  0  0  0  0
   16.0156   -1.4782    0.0000 H   0  0  0  0  0  0  0  0  0  0  0  0
   18.0132    0.8000    0.0000 C   0  0  0  0  0  0  0  0  0  0  0  0
   19.3990    1.6000    0.0000 H   0  0  0  0  0  0  0  0  0  0  0  0
   19.3990    0.0000    0.0000 H   0  0  0  0  0  0  0  0  0  0  0  0
   18.0132    2.4000    0.0000 H   0  0  0  0  0  0  0  0  0  0  0  0
   -6.9281    0.8000    0.0000 O   0  0  0  0  0  0  0  0  0  0  0  0
   -8.3138    0.0000    0.0000 H   0  0  0  0  0  0  0  0  0  0  0  0
   -5.5428   -1.6000    0.0000 O   0  0  0  0  0  0  0  0  0  0  0  0
  1  2  1  0  0  0  0
  2  3  1  0  0  0  0
  2  4  1  0  0  0  0
  2  5  1  0  0  0  0
  5  6  1  0  0  0  0
  5  7  1  0  0  0  0
  5  8  1  0  0  0  0
  8  9  1  0  0  0  0
  8 10  1  0  0  0  0
  8 11  1  0  0  0  0
 11 12  1  0  0  0  0
 11 13  1  0  0  0  0
 11 14  1  0  0  0  0
 14 15  1  0  0  0  0
 14 16  1  0  0  0  0
 14 17  1  0  0  0  0
 17 18  1  0  0  0  0
 17 19  1  0  0  0  0
 17 20  1  0  0  0  0
 20 21  1  0  0  0  0
 20 22  1  0  0  0  0
 20 23  1  0  0  0  0
 23 24  1  0  0  0  0
 23 25  2  0  0  0  0
 25 26  1  0  0  0  0
 25 27  1  0  0  0  0
 27 28  1  0  0  0  0
 27 29  1  0  0  0  0
 27 30  1  0  0  0  0
 30 31  1  0  0  0  0
 30 32  2  0  0  0  0
 32 33  1  0  0  0  0
 32 34  1  0  0  0  0
 34 35  1  0  0  0  0
 34 36  1  0  0  0  0
 34 37  1  0  0  0  0
 37 38  1  0  0  0  0
 37 39  2  0  0  0  0
 39 40  1  0  0  0  0
 39 41  1  0  0  0  0
 41 42  1  0  0  0  0
 41 43  1  0  0  0  0
 41 44  1  0  0  0  0
 44 45  1  0  0  0  0
 44 46  1  0  0  0  0
 44 47  1  0  0  0  0
  1 48  1  0  0  0  0
 48 49  1  0  0  0  0
  1 50  2  0  0  0  0
M  END
> <ChemID>
101264

> <source_casrn>
463-40-1

> <CAS>
463-40-1

> <SMILES>
CC/C=C\C/C=C\C/C=C\CCCCCCCC(O)=O

> <NAME>
9,12,15-OCTADECATRIENOIC ACID, (Z,Z,Z)-

> <preferred_name>
Linolenic acid

> <iupac>
(9Z,12Z,15Z)-octadeca-9,12,15-trienoic acid

> <MPID>
25887

> <dsstox_substance_id>
DTXSID7025506

> <Canonical_QSARr>
CCC=CCC=CCC=CCCCCCCCC(O)=O

> <InChI_Code_QSARr>
InChI=1S/C18H30O2/c1-2-3-4-5-6-7-8-9-10-11-12-13-14-15-16-17-18(19)20/h3-4,6-7,9-10H,2,5,8,11-17H2,1H3,(H,19,20)/b4-3+,7-6+,10-9+

> <InChI Key_QSARr>
DTOSIQBPPRVQHS-IUQGRGSQSA-N

> <Salt_Solvent>
?

> <LogVP>
-6.2675

$$$$
101268
  -INDIGO-08031723152D

 17 16  0  0  0  0  0  0  0  0999 V2000
    0.8000   -1.3856    0.0000 C   0  0  0  0  0  0  0  0  0  0  0  0
    1.6000   -2.7713    0.0000 H   0  0  0  0  0  0  0  0  0  0  0  0
   -0.0000   -2.7713    0.0000 H   0  0  0  0  0  0  0  0  0  0  0  0
    2.4000   -1.3856    0.0000 H   0  0  0  0  0  0  0  0  0  0  0  0
   -0.0000    0.0000    0.0000 C   0  0  0  0  0  0  0  0  0  0  0  0
   -0.8000    1.3856    0.0000 C   0  0  0  0  0  0  0  0  0  0  0  0
   -1.6000    2.7713    0.0000 H   0  0  0  0  0  0  0  0  0  0  0  0
   -2.4000    1.3856    0.0000 H   0  0  0  0  0  0  0  0  0  0  0  0
   -0.0000    2.7713    0.0000 H   0  0  0  0  0  0  0  0  0  0  0  0
    1.3856    0.8000    0.0000 C   0  0  0  0  0  0  0  0  0  0  0  0
    2.7713    1.6000    0.0000 H   0  0  0  0  0  0  0  0  0  0  0  0
    2.7713    0.0000    0.0000 H   0  0  0  0  0  0  0  0  0  0  0  0
    1.3856    2.4000    0.0000 H   0  0  0  0  0  0  0  0  0  0  0  0
   -1.3856   -0.8000    0.0000 C   0  0  0  0  0  0  0  0  0  0  0  0
   -2.7713   -1.6000    0.0000 H   0  0  0  0  0  0  0  0  0  0  0  0
   -1.3856   -2.4000    0.0000 H   0  0  0  0  0  0  0  0  0  0  0  0
   -2.7713    0.0000    0.0000 H   0  0  0  0  0  0  0  0  0  0  0  0
  1  2  1  0  0  0  0
  1  3  1  0  0  0  0
  1  4  1  0  0  0  0
  1  5  1  0  0  0  0
  5  6  1  0  0  0  0
  6  7  1  0  0  0  0
  6  8  1  0  0  0  0
  6  9  1  0  0  0  0
  5 10  1  0  0  0  0
 10 11  1  0  0  0  0
 10 12  1  0  0  0  0
 10 13  1  0  0  0  0
  5 14  1  0  0  0  0
 14 15  1  0  0  0  0
 14 16  1  0  0  0  0
 14 17  1  0  0  0  0
M  END
> <ChemID>
101268

> <source_casrn>
463-82-1

> <CAS>
463-82-1

> <SMILES>
CC(C)(C)C

> <NAME>
2,2-DIMETHYLPROPANE

> <preferred_name>
Propane, 2,2-dimethyl-

> <iupac>
2,2-dimethylpropane

> <MPID>
25891

> <dsstox_substance_id>
DTXSID6029179

> <Canonical_QSARr>
CC(C)(C)C

> <InChI_Code_QSARr>
InChI=1S/C5H12/c1-5(2,3)4/h1-4H3

> <InChI Key_QSARr>
CRSOQBOWXPBRES-UHFFFAOYSA-N

> <Salt_Solvent>
?

> <LogVP>
3.1089

$$$$
101273
  -INDIGO-08031723152D

 34 34  0  0  0  0  0  0  0  0999 V2000
    0.0000    0.0000    0.0000 P   0  0  0  0  0  0  0  0  0  0  0  0
    1.3857    0.8000    0.0000 O   0  0  0  0  0  0  0  0  0  0  0  0
    2.7713    0.0000    0.0000 C   0  0  0  0  0  0  0  0  0  0  0  0
    3.3836   -1.4782    0.0000 H   0  0  0  0  0  0  0  0  0  0  0  0
    2.1590   -1.4782    0.0000 H   0  0  0  0  0  0  0  0  0  0  0  0
    4.1570    0.8000    0.0000 C   0  0  0  0  0  0  0  0  0  0  0  0
    5.5426    1.6000    0.0000 H   0  0  0  0  0  0  0  0  0  0  0  0
    5.5426    0.0000    0.0000 H   0  0  0  0  0  0  0  0  0  0  0  0
    4.1570    2.4000    0.0000 H   0  0  0  0  0  0  0  0  0  0  0  0
   -1.3855   -0.8000    0.0000 O   0  0  0  0  0  0  0  0  0  0  0  0
   -2.7713    0.0000    0.0000 C   0  0  0  0  0  0  0  0  0  0  0  0
   -2.7713    1.6000    0.0000 C   0  0  0  0  0  0  0  0  0  0  0  0
   -1.3855    2.4000    0.0000 H   0  0  0  0  0  0  0  0  0  0  0  0
   -4.1568    2.4000    0.0000 Cl  0  0  0  0  0  0  0  0  0  0  0  0
   -4.1568   -0.8000    0.0000 C   0  0  0  0  0  0  0  0  0  0  0  0
   -5.5426    0.0000    0.0000 C   0  0  0  0  0  0  0  0  0  0  0  0
   -5.5426    1.6000    0.0000 Cl  0  0  0  0  0  0  0  0  0  0  0  0
   -6.9281   -0.8000    0.0000 C   0  0  0  0  0  0  0  0  0  0  0  0
   -8.3138    0.0000    0.0000 H   0  0  0  0  0  0  0  0  0  0  0  0
   -6.9281   -2.4000    0.0000 C   0  0  0  0  0  0  0  0  0  0  0  0
   -8.3138   -3.2000    0.0000 Cl  0  0  0  0  0  0  0  0  0  0  0  0
   -5.5426   -3.2000    0.0000 C   0  0  0  0  0  0  0  0  0  0  0  0
   -5.5426   -4.8000    0.0000 H   0  0  0  0  0  0  0  0  0  0  0  0
   -4.1568   -2.4000    0.0000 C   0  0  0  0  0  0  0  0  0  0  0  0
   -2.7713   -3.2000    0.0000 H   0  0  0  0  0  0  0  0  0  0  0  0
    0.0000    1.6000    0.0000 O   0  0  0  0  0  0  0  0  0  0  0  0
    1.3857   -0.8000    0.0000 O   0  0  0  0  0  0  0  0  0  0  0  0
    1.3857   -2.4000    0.0000 C   0  0  0  0  0  0  0  0  0  0  0  0
    0.4117   -3.6694    0.0000 H   0  0  0  0  0  0  0  0  0  0  0  0
   -0.2007   -2.6089    0.0000 H   0  0  0  0  0  0  0  0  0  0  0  0
    2.7713   -3.2000    0.0000 C   0  0  0  0  0  0  0  0  0  0  0  0
    4.1570   -4.0000    0.0000 H   0  0  0  0  0  0  0  0  0  0  0  0
    2.7713   -4.8000    0.0000 H   0  0  0  0  0  0  0  0  0  0  0  0
    4.1570   -2.4000    0.0000 H   0  0  0  0  0  0  0  0  0  0  0  0
  1  2  1  0  0  0  0
  2  3  1  0  0  0  0
  3  4  1  0  0  0  0
  3  5  1  0  0  0  0
  3  6  1  0  0  0  0
  6  7  1  0  0  0  0
  6  8  1  0  0  0  0
  6  9  1  0  0  0  0
  1 10  1  0  0  0  0
 10 11  1  0  0  0  0
 11 12  2  0  0  0  0
 12 13  1  0  0  0  0
 12 14  1  0  0  0  0
 11 15  1  0  0  0  0
 15 16  1  0  0  0  0
 16 17  1  0  0  0  0
 16 18  2  0  0  0  0
 18 19  1  0  0  0  0
 18 20  1  0  0  0  0
 20 21  1  0  0  0  0
 20 22  2  0  0  0  0
 22 23  1  0  0  0  0
 22 24  1  0  0  0  0
 24 15  2  0  0  0  0
 24 25  1  0  0  0  0
  1 26  2  0  0  0  0
  1 27  1  0  0  0  0
 27 28  1  0  0  0  0
 28 29  1  0  0  0  0
 28 30  1  0  0  0  0
 28 31  1  0  0  0  0
 31 32  1  0  0  0  0
 31 33  1  0  0  0  0
 31 34  1  0  0  0  0
M  END
> <ChemID>
101273

> <source_casrn>
470-90-6

> <CAS>
470-90-6

> <SMILES>
CCOP(=O)(OC(=CCl)c1ccc(Cl)cc1Cl)OCC

> <NAME>
CHLORFENVINPHOS

> <preferred_name>
Chlorfenvinphos

> <iupac>
2-chloro-1-(2,4-dichlorophenyl)ethenyl diethyl phosphate

> <MPID>
25896

> <dsstox_substance_id>
DTXSID7034250

> <Canonical_QSARr>
CCOP(=O)(OC(=CCl)c1ccc(Cl)cc1Cl)OCC

> <InChI_Code_QSARr>
InChI=1S/C12H14Cl3O4P/c1-3-17-20(16,18-4-2)19-12(8-13)10-6-5-9(14)7-11(10)15/h5-8H,3-4H2,1-2H3/b12-8+

> <InChI Key_QSARr>
FSAVDKDHPDSCTO-XYOKQWHBSA-N

> <Salt_Solvent>
?

> <LogVP>
-5.1249

$$$$
101277
  -INDIGO-08031723152D

 24 24  0  0  0  0  0  0  0  0999 V2000
   -0.0000    0.0000    0.0000 C   0  0  0  0  0  0  0  0  0  0  0  0
    1.6000    0.0000    0.0000 C   0  0  0  0  0  0  0  0  0  0  0  0
    2.4000    1.3856    0.0000 C   0  0  0  0  0  0  0  0  0  0  0  0
    3.2000    2.7713    0.0000 H   0  0  0  0  0  0  0  0  0  0  0  0
    4.0001    1.3856    0.0000 H   0  0  0  0  0  0  0  0  0  0  0  0
    1.6000    2.7713    0.0000 H   0  0  0  0  0  0  0  0  0  0  0  0
    2.4000   -1.3856    0.0000 C   0  0  0  0  0  0  0  0  0  0  0  0
    4.0001   -1.3856    0.0000 C   0  0  0  0  0  0  0  0  0  0  0  0
    5.6000   -1.3856    0.0000 H   0  0  0  0  0  0  0  0  0  0  0  0
    4.8000   -2.7713    0.0000 H   0  0  0  0  0  0  0  0  0  0  0  0
    4.8000    0.0000    0.0000 H   0  0  0  0  0  0  0  0  0  0  0  0
    1.6000   -2.7713    0.0000 C   0  0  0  0  0  0  0  0  0  0  0  0
    2.4000   -4.1569    0.0000 H   0  0  0  0  0  0  0  0  0  0  0  0
   -0.0000   -2.7713    0.0000 C   0  0  0  0  0  0  0  0  0  0  0  0
   -0.8000   -4.1569    0.0000 H   0  0  0  0  0  0  0  0  0  0  0  0
   -0.8000   -1.3856    0.0000 C   0  0  0  0  0  0  0  0  0  0  0  0
   -2.4001   -1.3856    0.0000 C   0  0  0  0  0  0  0  0  0  0  0  0
   -4.0000   -1.3856    0.0000 H   0  0  0  0  0  0  0  0  0  0  0  0
   -3.2000   -2.7713    0.0000 H   0  0  0  0  0  0  0  0  0  0  0  0
   -3.2000    0.0000    0.0000 H   0  0  0  0  0  0  0  0  0  0  0  0
   -0.8000    1.3856    0.0000 C   0  0  0  0  0  0  0  0  0  0  0  0
   -1.6000    2.7713    0.0000 H   0  0  0  0  0  0  0  0  0  0  0  0
   -2.4001    1.3856    0.0000 H   0  0  0  0  0  0  0  0  0  0  0  0
   -0.0000    2.7713    0.0000 H   0  0  0  0  0  0  0  0  0  0  0  0
  1  2  1  0  0  0  0
  2  3  1  0  0  0  0
  3  4  1  0  0  0  0
  3  5  1  0  0  0  0
  3  6  1  0  0  0  0
  2  7  2  0  0  0  0
  7  8  1  0  0  0  0
  8  9  1  0  0  0  0
  8 10  1  0  0  0  0
  8 11  1  0  0  0  0
  7 12  1  0  0  0  0
 12 13  1  0  0  0  0
 12 14  2  0  0  0  0
 14 15  1  0  0  0  0
 14 16  1  0  0  0  0
 16  1  2  0  0  0  0
 16 17  1  0  0  0  0
 17 18  1  0  0  0  0
 17 19  1  0  0  0  0
 17 20  1  0  0  0  0
  1 21  1  0  0  0  0
 21 22  1  0  0  0  0
 21 23  1  0  0  0  0
 21 24  1  0  0  0  0
M  END
> <ChemID>
101277

> <source_casrn>
488-23-3

> <CAS>
488-23-3

> <SMILES>
Cc1ccc(C)c(C)c1C

> <NAME>
1,2,3,4-TETRAMETHYLBENZENE

> <preferred_name>
1,2,3,4-Tetramethylbenzene

> <iupac>
1,2,3,4-TETRAMETHYLBENZENE

> <MPID>
25900

> <dsstox_substance_id>
DTXSID4060072

> <Canonical_QSARr>
Cc1ccc(C)c(C)c1C

> <InChI_Code_QSARr>
InChI=1S/C10H14/c1-7-5-6-8(2)10(4)9(7)3/h5-6H,1-4H3

> <InChI Key_QSARr>
UOHMMEJUHBCKEE-UHFFFAOYSA-N

> <Salt_Solvent>
?

> <LogVP>
-0.4429

$$$$
101283
  -INDIGO-08031723152D

 19 19  0  0  0  0  0  0  0  0999 V2000
    4.1570    0.8000    0.0000 N   0  0  0  0  0  0  0  0  0  0  0  0
    5.5426   -0.0000    0.0000 H   0  0  0  0  0  0  0  0  0  0  0  0
    4.1570    2.4000    0.0000 H   0  0  0  0  0  0  0  0  0  0  0  0
    2.7713   -0.0000    0.0000 C   0  0  0  0  0  0  0  0  0  0  0  0
    1.3856    0.8000    0.0000 C   0  0  0  0  0  0  0  0  0  0  0  0
    1.3856    2.4000    0.0000 H   0  0  0  0  0  0  0  0  0  0  0  0
    0.0000   -0.0000    0.0000 C   0  0  0  0  0  0  0  0  0  0  0  0
   -1.3857    0.8000    0.0000 C   0  0  0  0  0  0  0  0  0  0  0  0
   -2.7713    1.6000    0.0000 H   0  0  0  0  0  0  0  0  0  0  0  0
   -2.7713   -0.0000    0.0000 H   0  0  0  0  0  0  0  0  0  0  0  0
   -1.3857    2.4000    0.0000 H   0  0  0  0  0  0  0  0  0  0  0  0
    0.0000   -1.6000    0.0000 C   0  0  0  0  0  0  0  0  0  0  0  0
   -1.3856   -2.4000    0.0000 H   0  0  0  0  0  0  0  0  0  0  0  0
    1.3857   -2.4000    0.0000 C   0  0  0  0  0  0  0  0  0  0  0  0
    1.3857   -4.0000    0.0000 H   0  0  0  0  0  0  0  0  0  0  0  0
    2.7713   -1.6000    0.0000 C   0  0  0  0  0  0  0  0  0  0  0  0
    4.1570   -2.4000    0.0000 N   0  0  0  0  0  0  0  0  0  0  0  0
    4.1570   -4.0000    0.0000 H   0  0  0  0  0  0  0  0  0  0  0  0
    5.5426   -1.6000    0.0000 H   0  0  0  0  0  0  0  0  0  0  0  0
  1  2  1  0  0  0  0
  1  3  1  0  0  0  0
  1  4  1  0  0  0  0
  4  5  1  0  0  0  0
  5  6  1  0  0  0  0
  5  7  2  0  0  0  0
  7  8  1  0  0  0  0
  8  9  1  0  0  0  0
  8 10  1  0  0  0  0
  8 11  1  0  0  0  0
  7 12  1  0  0  0  0
 12 13  1  0  0  0  0
 12 14  2  0  0  0  0
 14 15  1  0  0  0  0
 14 16  1  0  0  0  0
 16  4  2  0  0  0  0
 16 17  1  0  0  0  0
 17 18  1  0  0  0  0
 17 19  1  0  0  0  0
M  END
> <ChemID>
101283

> <source_casrn>
496-72-0

> <CAS>
496-72-0

> <SMILES>
Cc1cc(N)c(N)cc1

> <NAME>
3,4-DIAMINOTOLUENE

> <preferred_name>
3,4-Diaminotoluene

> <iupac>
4-methylbenzene-1,2-diamine

> <MPID>
25906

> <dsstox_substance_id>
DTXSID9024930

> <Canonical_QSARr>
Cc1cc(N)c(N)cc1

> <InChI_Code_QSARr>
InChI=1S/C7H10N2/c1-5-2-3-6(8)7(9)4-5/h2-4H,8-9H2,1H3

> <InChI Key_QSARr>
DGRGLKZMKWPMOH-UHFFFAOYSA-N

> <Salt_Solvent>
?

> <LogVP>
-3.2013

$$$$
101287
  -INDIGO-08031723152D

 26 26  0  0  0  0  0  0  0  0999 V2000
   -6.9281    2.4000    0.0000 N   0  0  0  0  0  0  0  0  0  0  0  0
   -5.5426    1.6000    0.0000 C   0  0  0  0  0  0  0  0  0  0  0  0
   -4.1569    2.4000    0.0000 C   0  0  0  0  0  0  0  0  0  0  0  0
   -4.1569    4.0000    0.0000 Cl  0  0  0  0  0  0  0  0  0  0  0  0
   -2.7712    1.6000    0.0000 C   0  0  0  0  0  0  0  0  0  0  0  0
   -1.3857    2.4000    0.0000 H   0  0  0  0  0  0  0  0  0  0  0  0
   -2.7712    0.0000    0.0000 C   0  0  0  0  0  0  0  0  0  0  0  0
   -1.3857   -0.8000    0.0000 O   0  0  0  0  0  0  0  0  0  0  0  0
    0.0000    0.0000    0.0000 P   0  0  0  0  0  0  0  0  0  0  0  0
    0.0000   -1.6000    0.0000 S   0  0  0  0  0  0  0  0  0  0  0  0
    1.3857   -0.8000    0.0000 O   0  0  0  0  0  0  0  0  0  0  0  0
    2.7712    0.0000    0.0000 C   0  0  0  0  0  0  0  0  0  0  0  0
    4.1569   -0.8000    0.0000 H   0  0  0  0  0  0  0  0  0  0  0  0
    4.1569    0.8000    0.0000 H   0  0  0  0  0  0  0  0  0  0  0  0
    2.7712   -1.6000    0.0000 H   0  0  0  0  0  0  0  0  0  0  0  0
    1.3857    0.8000    0.0000 O   0  0  0  0  0  0  0  0  0  0  0  0
    1.3857    2.4000    0.0000 C   0  0  0  0  0  0  0  0  0  0  0  0
    1.3857    4.0000    0.0000 H   0  0  0  0  0  0  0  0  0  0  0  0
    2.7712    3.2000    0.0000 H   0  0  0  0  0  0  0  0  0  0  0  0
    0.0000    3.2000    0.0000 H   0  0  0  0  0  0  0  0  0  0  0  0
   -4.1569   -0.8000    0.0000 C   0  0  0  0  0  0  0  0  0  0  0  0
   -4.1569   -2.4000    0.0000 H   0  0  0  0  0  0  0  0  0  0  0  0
   -5.5426    0.0000    0.0000 C   0  0  0  0  0  0  0  0  0  0  0  0
   -6.9281   -0.8000    0.0000 H   0  0  0  0  0  0  0  0  0  0  0  0
   -8.3138    1.6000    0.0000 O   0  0  0  0  0  0  0  0  0  0  0  0
   -6.9281    4.0000    0.0000 O   0  0  0  0  0  0  0  0  0  0  0  0
  1  2  1  0  0  0  0
  2  3  1  0  0  0  0
  3  4  1  0  0  0  0
  3  5  2  0  0  0  0
  5  6  1  0  0  0  0
  5  7  1  0  0  0  0
  7  8  1  0  0  0  0
  8  9  1  0  0  0  0
  9 10  2  0  0  0  0
  9 11  1  0  0  0  0
 11 12  1  0  0  0  0
 12 13  1  0  0  0  0
 12 14  1  0  0  0  0
 12 15  1  0  0  0  0
  9 16  1  0  0  0  0
 16 17  1  0  0  0  0
 17 18  1  0  0  0  0
 17 19  1  0  0  0  0
 17 20  1  0  0  0  0
  7 21  2  0  0  0  0
 21 22  1  0  0  0  0
 21 23  1  0  0  0  0
 23  2  2  0  0  0  0
 23 24  1  0  0  0  0
  1 25  1  0  0  0  0
  1 26  2  0  0  0  0
M  CHG  2   1   1  25  -1
M  END
> <ChemID>
101287

> <source_casrn>
500-28-7

> <CAS>
500-28-7

> <SMILES>
COP(=S)(Oc1cc(Cl)c(cc1)[N+]([O-])=O)OC

> <NAME>
3-CHLORO-DIMETHYL PARATHION

> <preferred_name>
Chlorthion

> <iupac>
O-(3-chloro-4-nitrophenyl) O,O-dimethyl phosphorothioate

> <MPID>
25910

> <dsstox_substance_id>
DTXSID9041784

> <Canonical_QSARr>
COP(=S)(Oc1cc(Cl)c(cc1)[N+]([O-])=O)OC

> <InChI_Code_QSARr>
InChI=1S/C8H9ClNO5PS/c1-13-16(17,14-2)15-6-3-4-8(10(11)12)7(9)5-6/h3-5H,1-2H3

> <InChI Key_QSARr>
NZNRRXXETLSZRO-UHFFFAOYSA-N

> <Salt_Solvent>
?

> <LogVP>
-5.3979

$$$$
101291
  -INDIGO-08031723152D

 20 20  0  0  0  0  0  0  0  0999 V2000
    1.3134    3.3467    0.0000 C   0  0  0  0  0  0  0  0  0  0  0  0
    2.2148    4.6687    0.0000 O   0  0  0  0  0  0  0  0  0  0  0  0
   -0.2687    3.5851    0.0000 C   0  0  0  0  0  0  0  0  0  0  0  0
    0.3158    5.0745    0.0000 H   0  0  0  0  0  0  0  0  0  0  0  0
   -1.4140    4.7023    0.0000 H   0  0  0  0  0  0  0  0  0  0  0  0
   -1.4416    2.4969    0.0000 C   0  0  0  0  0  0  0  0  0  0  0  0
   -2.2415    3.8824    0.0000 H   0  0  0  0  0  0  0  0  0  0  0  0
   -2.9705    2.0253    0.0000 H   0  0  0  0  0  0  0  0  0  0  0  0
   -1.3220    0.9013    0.0000 C   0  0  0  0  0  0  0  0  0  0  0  0
   -2.9215    0.8614    0.0000 H   0  0  0  0  0  0  0  0  0  0  0  0
   -1.9065   -0.5881    0.0000 H   0  0  0  0  0  0  0  0  0  0  0  0
   -0.0000    0.0000    0.0000 C   0  0  0  0  0  0  0  0  0  0  0  0
   -0.9661   -1.2754    0.0000 H   0  0  0  0  0  0  0  0  0  0  0  0
    0.8000   -1.3856    0.0000 H   0  0  0  0  0  0  0  0  0  0  0  0
    1.5290    0.4716    0.0000 C   0  0  0  0  0  0  0  0  0  0  0  0
    1.9237   -1.0789    0.0000 H   0  0  0  0  0  0  0  0  0  0  0  0
    3.1111    0.2332    0.0000 H   0  0  0  0  0  0  0  0  0  0  0  0
    2.1135    1.9610    0.0000 C   0  0  0  0  0  0  0  0  0  0  0  0
    3.5719    1.3029    0.0000 H   0  0  0  0  0  0  0  0  0  0  0  0
    3.2864    3.0493    0.0000 H   0  0  0  0  0  0  0  0  0  0  0  0
  1  2  2  0  0  0  0
  1  3  1  0  0  0  0
  3  4  1  0  0  0  0
  3  5  1  0  0  0  0
  3  6  1  0  0  0  0
  6  7  1  0  0  0  0
  6  8  1  0  0  0  0
  6  9  1  0  0  0  0
  9 10  1  0  0  0  0
  9 11  1  0  0  0  0
  9 12  1  0  0  0  0
 12 13  1  0  0  0  0
 12 14  1  0  0  0  0
 12 15  1  0  0  0  0
 15 16  1  0  0  0  0
 15 17  1  0  0  0  0
 15 18  1  0  0  0  0
 18  1  1  0  0  0  0
 18 19  1  0  0  0  0
 18 20  1  0  0  0  0
M  END
> <ChemID>
101291

> <source_casrn>
502-42-1

> <CAS>
502-42-1

> <SMILES>
O=C1CCCCCC1

> <NAME>
CYCLOHEPTANONE

> <preferred_name>
Cycloheptanone

> <iupac>
Cycloheptanone

> <MPID>
25914

> <dsstox_substance_id>
DTXSID8060113

> <Canonical_QSARr>
O=C1CCCCCC1

> <InChI_Code_QSARr>
InChI=1S/C7H12O/c8-7-5-3-1-2-4-6-7/h1-6H2

> <InChI Key_QSARr>
CGZZMOTZOONQIA-UHFFFAOYSA-N

> <Salt_Solvent>
?

> <LogVP>
0.0969

$$$$
101295
  -INDIGO-08031723152D

 10  9  0  0  0  0  0  0  0  0999 V2000
    1.6000   -0.0000    0.0000 C   0  0  0  0  0  0  0  0  0  0  0  0
    3.2000    0.0000    0.0000 C   0  0  0  0  0  0  0  0  0  0  0  0
    4.8000    0.0000    0.0000 C   0  0  0  0  0  0  0  0  0  0  0  0
    6.4000    0.0000    0.0000 H   0  0  0  0  0  0  0  0  0  0  0  0
    5.6001    1.3856    0.0000 H   0  0  0  0  0  0  0  0  0  0  0  0
    5.6001   -1.3856    0.0000 H   0  0  0  0  0  0  0  0  0  0  0  0
    0.0000   -0.0000    0.0000 C   0  0  0  0  0  0  0  0  0  0  0  0
   -1.6000   -0.0000    0.0000 H   0  0  0  0  0  0  0  0  0  0  0  0
   -0.8001    1.3856    0.0000 H   0  0  0  0  0  0  0  0  0  0  0  0
   -0.8001   -1.3856    0.0000 H   0  0  0  0  0  0  0  0  0  0  0  0
  1  2  3  0  0  0  0
  2  3  1  0  0  0  0
  3  4  1  0  0  0  0
  3  5  1  0  0  0  0
  3  6  1  0  0  0  0
  1  7  1  0  0  0  0
  7  8  1  0  0  0  0
  7  9  1  0  0  0  0
  7 10  1  0  0  0  0
M  END
> <ChemID>
101295

> <source_casrn>
503-17-3

> <CAS>
503-17-3

> <SMILES>
CC#CC

> <NAME>
2-BUTYNE

> <preferred_name>
2-Butyne

> <iupac>
but-2-yne

> <MPID>
25918

> <dsstox_substance_id>
DTXSID3060116

> <Canonical_QSARr>
CC#CC

> <InChI_Code_QSARr>
InChI=1S/C4H6/c1-3-4-2/h1-2H3

> <InChI Key_QSARr>
XNMQEEKYCVKGBD-UHFFFAOYSA-N

> <Salt_Solvent>
?

> <LogVP>
2.8488

$$$$
101300
  -INDIGO-08031723152D

 13 13  0  0  0  0  0  0  0  0999 V2000
   -0.8000    1.3856    0.0000 C   0  0  0  0  0  0  0  0  0  0  0  0
    0.0000   -0.0000    0.0000 C   0  0  0  0  0  0  0  0  0  0  0  0
    1.2257    1.0285    0.0000 H   0  0  0  0  0  0  0  0  0  0  0  0
    1.2257   -1.0285    0.0000 H   0  0  0  0  0  0  0  0  0  0  0  0
   -0.8000   -1.3856    0.0000 C   0  0  0  0  0  0  0  0  0  0  0  0
    0.0000   -2.7713    0.0000 O   0  0  0  0  0  0  0  0  0  0  0  0
   -2.4000   -1.3856    0.0000 N   0  0  0  0  0  0  0  0  0  0  0  0
   -3.2000   -2.7713    0.0000 H   0  0  0  0  0  0  0  0  0  0  0  0
   -3.2000   -0.0000    0.0000 C   0  0  0  0  0  0  0  0  0  0  0  0
   -4.8000   -0.0000    0.0000 S   0  0  0  0  0  0  0  0  0  0  0  0
   -2.4000    1.3856    0.0000 N   0  0  0  0  0  0  0  0  0  0  0  0
   -3.2000    2.7713    0.0000 H   0  0  0  0  0  0  0  0  0  0  0  0
    0.0000    2.7713    0.0000 O   0  0  0  0  0  0  0  0  0  0  0  0
  1  2  1  0  0  0  0
  2  3  1  0  0  0  0
  2  4  1  0  0  0  0
  2  5  1  0  0  0  0
  5  6  2  0  0  0  0
  5  7  1  0  0  0  0
  7  8  1  0  0  0  0
  7  9  1  0  0  0  0
  9 10  2  0  0  0  0
  9 11  1  0  0  0  0
 11  1  1  0  0  0  0
 11 12  1  0  0  0  0
  1 13  2  0  0  0  0
M  END
> <ChemID>
101300

> <source_casrn>
504-17-6

> <CAS>
504-17-6

> <SMILES>
O=C1CC(=O)NC(=S)N1

> <NAME>
Thiobarbituric Acid

> <preferred_name>
4,6(1H,5H)-Pyrimidinedione, dihydro-2-thioxo-

> <iupac>
2-sulfanylidene-1,3-diazinane-4,6-dione

> <MPID>
25922

> <dsstox_substance_id>
DTXSID7060124

> <Canonical_QSARr>
O=C1CC(=O)NC(=S)N1

> <InChI_Code_QSARr>
InChI=1S/C4H4N2O2S/c7-2-1-3(8)6-4(9)5-2/h1H2,(H2,5,6,7,8,9)

> <InChI Key_QSARr>
RVBUGGBMJDPOST-UHFFFAOYSA-N

> <Salt_Solvent>
?

> <LogVP>
-7.699

$$$$
101305
  -INDIGO-08031723152D

 26 25  0  0  0  0  0  0  0  0999 V2000
    5.5425    0.0000    0.0000 O   0  0  0  0  0  0  0  0  0  0  0  0
    6.9282   -0.8000    0.0000 H   0  0  0  0  0  0  0  0  0  0  0  0
    4.1570   -0.8000    0.0000 C   0  0  0  0  0  0  0  0  0  0  0  0
    2.7713    0.0000    0.0000 C   0  0  0  0  0  0  0  0  0  0  0  0
    3.3835    1.4782    0.0000 H   0  0  0  0  0  0  0  0  0  0  0  0
    2.1589    1.4782    0.0000 H   0  0  0  0  0  0  0  0  0  0  0  0
    1.3856   -0.8000    0.0000 C   0  0  0  0  0  0  0  0  0  0  0  0
    0.7732   -2.2782    0.0000 H   0  0  0  0  0  0  0  0  0  0  0  0
    1.9980   -2.2782    0.0000 H   0  0  0  0  0  0  0  0  0  0  0  0
   -0.0001    0.0000    0.0000 C   0  0  0  0  0  0  0  0  0  0  0  0
    0.6123    1.4782    0.0000 H   0  0  0  0  0  0  0  0  0  0  0  0
   -0.6122    1.4782    0.0000 H   0  0  0  0  0  0  0  0  0  0  0  0
   -1.3856   -0.8000    0.0000 C   0  0  0  0  0  0  0  0  0  0  0  0
   -1.9979   -2.2782    0.0000 H   0  0  0  0  0  0  0  0  0  0  0  0
   -0.7734   -2.2782    0.0000 H   0  0  0  0  0  0  0  0  0  0  0  0
   -2.7713    0.0000    0.0000 C   0  0  0  0  0  0  0  0  0  0  0  0
   -2.1589    1.4782    0.0000 H   0  0  0  0  0  0  0  0  0  0  0  0
   -3.3836    1.4782    0.0000 H   0  0  0  0  0  0  0  0  0  0  0  0
   -4.1570   -0.8000    0.0000 C   0  0  0  0  0  0  0  0  0  0  0  0
   -4.7691   -2.2782    0.0000 H   0  0  0  0  0  0  0  0  0  0  0  0
   -3.5446   -2.2782    0.0000 H   0  0  0  0  0  0  0  0  0  0  0  0
   -5.5427    0.0000    0.0000 C   0  0  0  0  0  0  0  0  0  0  0  0
   -6.9281   -0.8000    0.0000 O   0  0  0  0  0  0  0  0  0  0  0  0
   -8.3138    0.0000    0.0000 H   0  0  0  0  0  0  0  0  0  0  0  0
   -5.5427    1.6000    0.0000 O   0  0  0  0  0  0  0  0  0  0  0  0
    4.1570   -2.4000    0.0000 O   0  0  0  0  0  0  0  0  0  0  0  0
  1  2  1  0  0  0  0
  1  3  1  0  0  0  0
  3  4  1  0  0  0  0
  4  5  1  0  0  0  0
  4  6  1  0  0  0  0
  4  7  1  0  0  0  0
  7  8  1  0  0  0  0
  7  9  1  0  0  0  0
  7 10  1  0  0  0  0
 10 11  1  0  0  0  0
 10 12  1  0  0  0  0
 10 13  1  0  0  0  0
 13 14  1  0  0  0  0
 13 15  1  0  0  0  0
 13 16  1  0  0  0  0
 16 17  1  0  0  0  0
 16 18  1  0  0  0  0
 16 19  1  0  0  0  0
 19 20  1  0  0  0  0
 19 21  1  0  0  0  0
 19 22  1  0  0  0  0
 22 23  1  0  0  0  0
 23 24  1  0  0  0  0
 22 25  2  0  0  0  0
  3 26  2  0  0  0  0
M  END
> <ChemID>
101305

> <source_casrn>
505-48-6

> <CAS>
505-48-6

> <SMILES>
OC(=O)CCCCCCC(O)=O

> <NAME>
SUBERIC ACID

> <preferred_name>
Octanedioic acid

> <iupac>
octanedioic acid

> <MPID>
25926

> <dsstox_substance_id>
DTXSID8021644

> <Canonical_QSARr>
OC(=O)CCCCCCC(O)=O

> <InChI_Code_QSARr>
InChI=1S/C8H14O4/c9-7(10)5-3-1-2-4-6-8(11)12/h1-6H2,(H,9,10)(H,11,12)

> <InChI Key_QSARr>
TYFQFVWCELRYAO-UHFFFAOYSA-N

> <Salt_Solvent>
?

> <LogVP>
-6.5406

$$$$
101309
  -INDIGO-08031723152D

 62 61  0  0  0  0  0  0  0  0999 V2000
   -1.3855   -0.8000    0.0000 C   0  0  0  0  0  0  0  0  0  0  0  0
   -0.7734   -2.2782    0.0000 H   0  0  0  0  0  0  0  0  0  0  0  0
   -1.9981   -2.2782    0.0000 H   0  0  0  0  0  0  0  0  0  0  0  0
    0.0002    0.0000    0.0000 C   0  0  0  0  0  0  0  0  0  0  0  0
   -0.6124    1.4782    0.0000 H   0  0  0  0  0  0  0  0  0  0  0  0
    0.6123    1.4782    0.0000 H   0  0  0  0  0  0  0  0  0  0  0  0
    1.3859   -0.8000    0.0000 C   0  0  0  0  0  0  0  0  0  0  0  0
    1.9980   -2.2782    0.0000 H   0  0  0  0  0  0  0  0  0  0  0  0
    0.7733   -2.2782    0.0000 H   0  0  0  0  0  0  0  0  0  0  0  0
    2.7711    0.0000    0.0000 C   0  0  0  0  0  0  0  0  0  0  0  0
    2.1590    1.4782    0.0000 H   0  0  0  0  0  0  0  0  0  0  0  0
    3.3837    1.4782    0.0000 H   0  0  0  0  0  0  0  0  0  0  0  0
    4.1568   -0.8000    0.0000 C   0  0  0  0  0  0  0  0  0  0  0  0
    4.7694   -2.2782    0.0000 H   0  0  0  0  0  0  0  0  0  0  0  0
    3.5447   -2.2782    0.0000 H   0  0  0  0  0  0  0  0  0  0  0  0
    5.5425    0.0000    0.0000 C   0  0  0  0  0  0  0  0  0  0  0  0
    4.9304    1.4782    0.0000 H   0  0  0  0  0  0  0  0  0  0  0  0
    6.1547    1.4782    0.0000 H   0  0  0  0  0  0  0  0  0  0  0  0
    6.9282   -0.8000    0.0000 C   0  0  0  0  0  0  0  0  0  0  0  0
    7.5404   -2.2782    0.0000 H   0  0  0  0  0  0  0  0  0  0  0  0
    6.3161   -2.2782    0.0000 H   0  0  0  0  0  0  0  0  0  0  0  0
    8.3139    0.0000    0.0000 C   0  0  0  0  0  0  0  0  0  0  0  0
    7.7018    1.4782    0.0000 H   0  0  0  0  0  0  0  0  0  0  0  0
    8.9261    1.4782    0.0000 H   0  0  0  0  0  0  0  0  0  0  0  0
    9.6996   -0.8000    0.0000 C   0  0  0  0  0  0  0  0  0  0  0  0
   10.3118   -2.2782    0.0000 H   0  0  0  0  0  0  0  0  0  0  0  0
    9.0870   -2.2782    0.0000 H   0  0  0  0  0  0  0  0  0  0  0  0
   11.0853    0.0000    0.0000 C   0  0  0  0  0  0  0  0  0  0  0  0
   10.4727    1.4782    0.0000 H   0  0  0  0  0  0  0  0  0  0  0  0
   11.6975    1.4782    0.0000 H   0  0  0  0  0  0  0  0  0  0  0  0
   12.4706   -0.8000    0.0000 C   0  0  0  0  0  0  0  0  0  0  0  0
   13.0832   -2.2782    0.0000 H   0  0  0  0  0  0  0  0  0  0  0  0
   11.8584   -2.2782    0.0000 H   0  0  0  0  0  0  0  0  0  0  0  0
   13.8563    0.0000    0.0000 C   0  0  0  0  0  0  0  0  0  0  0  0
   13.2441    1.4782    0.0000 H   0  0  0  0  0  0  0  0  0  0  0  0
   14.4689    1.4782    0.0000 H   0  0  0  0  0  0  0  0  0  0  0  0
   15.2420   -0.8000    0.0000 C   0  0  0  0  0  0  0  0  0  0  0  0
   16.6277   -1.6000    0.0000 H   0  0  0  0  0  0  0  0  0  0  0  0
   16.6277    0.0000    0.0000 H   0  0  0  0  0  0  0  0  0  0  0  0
   15.2420   -2.4000    0.0000 H   0  0  0  0  0  0  0  0  0  0  0  0
   -2.7712    0.0000    0.0000 C   0  0  0  0  0  0  0  0  0  0  0  0
   -3.3834    1.4782    0.0000 H   0  0  0  0  0  0  0  0  0  0  0  0
   -2.1591    1.4782    0.0000 H   0  0  0  0  0  0  0  0  0  0  0  0
   -4.1569   -0.8000    0.0000 C   0  0  0  0  0  0  0  0  0  0  0  0
   -3.5448   -2.2782    0.0000 H   0  0  0  0  0  0  0  0  0  0  0  0
   -4.7691   -2.2782    0.0000 H   0  0  0  0  0  0  0  0  0  0  0  0
   -5.5426    0.0000    0.0000 C   0  0  0  0  0  0  0  0  0  0  0  0
   -6.1548    1.4782    0.0000 H   0  0  0  0  0  0  0  0  0  0  0  0
   -4.9305    1.4782    0.0000 H   0  0  0  0  0  0  0  0  0  0  0  0
   -6.9284   -0.8000    0.0000 C   0  0  0  0  0  0  0  0  0  0  0  0
   -6.3157   -2.2782    0.0000 H   0  0  0  0  0  0  0  0  0  0  0  0
   -7.5405   -2.2782    0.0000 H   0  0  0  0  0  0  0  0  0  0  0  0
   -8.3141    0.0000    0.0000 C   0  0  0  0  0  0  0  0  0  0  0  0
   -8.9262    1.4782    0.0000 H   0  0  0  0  0  0  0  0  0  0  0  0
   -7.7014    1.4782    0.0000 H   0  0  0  0  0  0  0  0  0  0  0  0
   -9.6993   -0.8000    0.0000 C   0  0  0  0  0  0  0  0  0  0  0  0
   -9.0871   -2.2782    0.0000 H   0  0  0  0  0  0  0  0  0  0  0  0
  -10.3119   -2.2782    0.0000 H   0  0  0  0  0  0  0  0  0  0  0  0
  -11.0850    0.0000    0.0000 C   0  0  0  0  0  0  0  0  0  0  0  0
  -12.4707   -0.8000    0.0000 O   0  0  0  0  0  0  0  0  0  0  0  0
  -13.8564    0.0000    0.0000 H   0  0  0  0  0  0  0  0  0  0  0  0
  -11.0850    1.6000    0.0000 O   0  0  0  0  0  0  0  0  0  0  0  0
  1  2  1  0  0  0  0
  1  3  1  0  0  0  0
  1  4  1  0  0  0  0
  4  5  1  0  0  0  0
  4  6  1  0  0  0  0
  4  7  1  0  0  0  0
  7  8  1  0  0  0  0
  7  9  1  0  0  0  0
  7 10  1  0  0  0  0
 10 11  1  0  0  0  0
 10 12  1  0  0  0  0
 10 13  1  0  0  0  0
 13 14  1  0  0  0  0
 13 15  1  0  0  0  0
 13 16  1  0  0  0  0
 16 17  1  0  0  0  0
 16 18  1  0  0  0  0
 16 19  1  0  0  0  0
 19 20  1  0  0  0  0
 19 21  1  0  0  0  0
 19 22  1  0  0  0  0
 22 23  1  0  0  0  0
 22 24  1  0  0  0  0
 22 25  1  0  0  0  0
 25 26  1  0  0  0  0
 25 27  1  0  0  0  0
 25 28  1  0  0  0  0
 28 29  1  0  0  0  0
 28 30  1  0  0  0  0
 28 31  1  0  0  0  0
 31 32  1  0  0  0  0
 31 33  1  0  0  0  0
 31 34  1  0  0  0  0
 34 35  1  0  0  0  0
 34 36  1  0  0  0  0
 34 37  1  0  0  0  0
 37 38  1  0  0  0  0
 37 39  1  0  0  0  0
 37 40  1  0  0  0  0
  1 41  1  0  0  0  0
 41 42  1  0  0  0  0
 41 43  1  0  0  0  0
 41 44  1  0  0  0  0
 44 45  1  0  0  0  0
 44 46  1  0  0  0  0
 44 47  1  0  0  0  0
 47 48  1  0  0  0  0
 47 49  1  0  0  0  0
 47 50  1  0  0  0  0
 50 51  1  0  0  0  0
 50 52  1  0  0  0  0
 50 53  1  0  0  0  0
 53 54  1  0  0  0  0
 53 55  1  0  0  0  0
 53 56  1  0  0  0  0
 56 57  1  0  0  0  0
 56 58  1  0  0  0  0
 56 59  1  0  0  0  0
 59 60  1  0  0  0  0
 60 61  1  0  0  0  0
 59 62  2  0  0  0  0
M  END
> <ChemID>
101309

> <source_casrn>
506-30-9

> <CAS>
506-30-9

> <SMILES>
CCCCCCCCCCCCCCCCCCCC(O)=O

> <NAME>
EICOSANOIC ACID

> <preferred_name>
Eicosanoic acid

> <iupac>
Icosanoic acid

> <MPID>
25930

> <dsstox_substance_id>
DTXSID1060134

> <Canonical_QSARr>
CCCCCCCCCCCCCCCCCCCC(O)=O

> <InChI_Code_QSARr>
InChI=1S/C20H40O2/c1-2-3-4-5-6-7-8-9-10-11-12-13-14-15-16-17-18-19-20(21)22/h2-19H2,1H3,(H,21,22)

> <InChI Key_QSARr>
VKOBVWXKNCXXDE-UHFFFAOYSA-N

> <Salt_Solvent>
?

> <LogVP>
-8.7416

$$$$
101317
  -INDIGO-08031723152D

 11 10  0  0  0  0  0  0  0  0999 V2000
   -1.3856    0.8000    0.0000 C   0  0  0  0  0  0  0  0  0  0  0  0
    0.0000    0.0000    0.0000 C   0  0  0  0  0  0  0  0  0  0  0  0
    1.3856    0.8000    0.0000 C   0  0  0  0  0  0  0  0  0  0  0  0
    2.7713    1.6000    0.0000 H   0  0  0  0  0  0  0  0  0  0  0  0
    2.7713    0.0000    0.0000 Cl  0  0  0  0  0  0  0  0  0  0  0  0
    1.3856    2.4000    0.0000 F   0  0  0  0  0  0  0  0  0  0  0  0
   -0.6123   -1.4782    0.0000 F   0  0  0  0  0  0  0  0  0  0  0  0
    0.6123   -1.4782    0.0000 F   0  0  0  0  0  0  0  0  0  0  0  0
   -2.7713    1.6000    0.0000 Cl  0  0  0  0  0  0  0  0  0  0  0  0
   -2.7713    0.0000    0.0000 F   0  0  0  0  0  0  0  0  0  0  0  0
   -1.3856    2.4000    0.0000 F   0  0  0  0  0  0  0  0  0  0  0  0
  1  2  1  0  0  0  0
  2  3  1  0  0  0  0
  3  4  1  0  0  0  0
  3  5  1  0  0  0  0
  3  6  1  0  0  0  0
  2  7  1  0  0  0  0
  2  8  1  0  0  0  0
  1  9  1  0  0  0  0
  1 10  1  0  0  0  0
  1 11  1  0  0  0  0
M  END
> <ChemID>
101317

> <source_casrn>
507-55-1

> <CAS>
507-55-1

> <SMILES>
FC(F)(Cl)C(F)(F)C(F)Cl

> <NAME>
1,3-DICHLORO-1,2,2,3,3-PENTAFLUOROPROPANE

> <preferred_name>
1,3-dichloro-1,1,2,2,3-pentafluoropropane

> <iupac>
1,3-dichloro-1,1,2,2,3-pentafluoropropane

> <MPID>
25934

> <dsstox_substance_id>
DTXSID6042028

> <Canonical_QSARr>
FC(F)(Cl)C(F)(F)C(F)Cl

> <InChI_Code_QSARr>
InChI=1S/C3HCl2F5/c4-1(6)2(7,8)3(5,9)10/h1H

> <InChI Key_QSARr>
UJIGKESMIPTWJH-UHFFFAOYSA-N

> <Salt_Solvent>
?

> <LogVP>
2.4564

$$$$
101321
  -INDIGO-08031723152D

 15 14  0  0  0  0  0  0  0  0999 V2000
    1.3856    0.8000    0.0000 C   0  0  0  0  0  0  0  0  0  0  0  0
    2.7713    1.6000    0.0000 H   0  0  0  0  0  0  0  0  0  0  0  0
    2.7713    0.0000    0.0000 F   0  0  0  0  0  0  0  0  0  0  0  0
    0.0000    0.0000    0.0000 C   0  0  0  0  0  0  0  0  0  0  0  0
    0.6122   -1.4782    0.0000 F   0  0  0  0  0  0  0  0  0  0  0  0
   -0.6122   -1.4782    0.0000 F   0  0  0  0  0  0  0  0  0  0  0  0
   -1.3857    0.8000    0.0000 O   0  0  0  0  0  0  0  0  0  0  0  0
   -2.7713    0.0000    0.0000 C   0  0  0  0  0  0  0  0  0  0  0  0
   -2.1590   -1.4782    0.0000 H   0  0  0  0  0  0  0  0  0  0  0  0
   -3.3835   -1.4782    0.0000 H   0  0  0  0  0  0  0  0  0  0  0  0
   -4.1569    0.8000    0.0000 C   0  0  0  0  0  0  0  0  0  0  0  0
   -5.5426    1.6000    0.0000 H   0  0  0  0  0  0  0  0  0  0  0  0
   -5.5426    0.0000    0.0000 H   0  0  0  0  0  0  0  0  0  0  0  0
   -4.1569    2.4000    0.0000 H   0  0  0  0  0  0  0  0  0  0  0  0
    1.3856    2.4000    0.0000 F   0  0  0  0  0  0  0  0  0  0  0  0
  1  2  1  0  0  0  0
  1  3  1  0  0  0  0
  1  4  1  0  0  0  0
  4  5  1  0  0  0  0
  4  6  1  0  0  0  0
  4  7  1  0  0  0  0
  7  8  1  0  0  0  0
  8  9  1  0  0  0  0
  8 10  1  0  0  0  0
  8 11  1  0  0  0  0
 11 12  1  0  0  0  0
 11 13  1  0  0  0  0
 11 14  1  0  0  0  0
  1 15  1  0  0  0  0
M  END
> <ChemID>
101321

> <source_casrn>
512-51-6

> <CAS>
512-51-6

> <SMILES>
CCOC(F)(F)C(F)F

> <NAME>
ETHYL 1,1,2,2-TETRAFLUOROETHYL ETHER

> <preferred_name>
Ethane, 1-ethoxy-1,1,2,2-tetrafluoro-

> <iupac>
1-Ethoxy-1,1,2,2-tetrafluoroethane

> <MPID>
25938

> <dsstox_substance_id>
DTXSID4075249

> <Canonical_QSARr>
CCOC(F)(F)C(F)F

> <InChI_Code_QSARr>
InChI=1S/C4H6F4O/c1-2-9-4(7,8)3(5)6/h3H,2H2,1H3

> <InChI Key_QSARr>
HBRLMDFVVMYNFH-UHFFFAOYSA-N

> <Salt_Solvent>
?

> <LogVP>
2.3385

$$$$
101326
  -INDIGO-08031723152D

 14 13  0  0  0  0  0  0  0  0999 V2000
    0.0000    0.0000    0.0000 C   0  0  0  0  0  0  0  0  0  0  0  0
    0.0000   -1.6000    0.0000 H   0  0  0  0  0  0  0  0  0  0  0  0
   -1.6000    0.0000    0.0000 C   0  0  0  0  0  0  0  0  0  0  0  0
   -3.2000    0.0000    0.0000 H   0  0  0  0  0  0  0  0  0  0  0  0
   -2.4000   -1.3856    0.0000 H   0  0  0  0  0  0  0  0  0  0  0  0
   -2.4000    1.3856    0.0000 I   0  0  0  0  0  0  0  0  0  0  0  0
    0.0000    1.6000    0.0000 C   0  0  0  0  0  0  0  0  0  0  0  0
   -0.0000    3.2000    0.0000 H   0  0  0  0  0  0  0  0  0  0  0  0
    1.3856    2.4000    0.0000 H   0  0  0  0  0  0  0  0  0  0  0  0
   -1.3856    2.4000    0.0000 H   0  0  0  0  0  0  0  0  0  0  0  0
    1.6000    0.0000    0.0000 C   0  0  0  0  0  0  0  0  0  0  0  0
    3.2000    0.0000    0.0000 H   0  0  0  0  0  0  0  0  0  0  0  0
    2.4000   -1.3856    0.0000 H   0  0  0  0  0  0  0  0  0  0  0  0
    2.4000    1.3856    0.0000 H   0  0  0  0  0  0  0  0  0  0  0  0
  1  2  1  0  0  0  0
  1  3  1  0  0  0  0
  3  4  1  0  0  0  0
  3  5  1  0  0  0  0
  3  6  1  0  0  0  0
  1  7  1  0  0  0  0
  7  8  1  0  0  0  0
  7  9  1  0  0  0  0
  7 10  1  0  0  0  0
  1 11  1  0  0  0  0
 11 12  1  0  0  0  0
 11 13  1  0  0  0  0
 11 14  1  0  0  0  0
M  END
> <ChemID>
101326

> <source_casrn>
513-38-2

> <CAS>
513-38-2

> <SMILES>
CC(C)CI

> <NAME>
1-IODO-2-METHYLPROPANE

> <preferred_name>
Propane, 1-iodo-2-methyl-

> <iupac>
1-Iodo-2-methylpropane

> <MPID>
25942

> <dsstox_substance_id>
DTXSID9060154

> <Canonical_QSARr>
CC(C)CI

> <InChI_Code_QSARr>
InChI=1S/C4H9I/c1-4(2)3-5/h4H,3H2,1-2H3

> <InChI Key_QSARr>
BTUGGGLMQBJCBN-UHFFFAOYSA-N

> <Salt_Solvent>
?

> <LogVP>
1.1947

$$$$
101330
  -INDIGO-08031723152D

 16 15  0  0  0  0  0  0  0  0999 V2000
    0.8000    1.3856    0.0000 C   0  0  0  0  0  0  0  0  0  0  0  0
    2.4000    1.3856    0.0000 H   0  0  0  0  0  0  0  0  0  0  0  0
   -0.0000    2.7713    0.0000 H   0  0  0  0  0  0  0  0  0  0  0  0
   -0.0000    0.0000    0.0000 C   0  0  0  0  0  0  0  0  0  0  0  0
    0.8000   -1.3856    0.0000 C   0  0  0  0  0  0  0  0  0  0  0  0
    1.6000   -2.7713    0.0000 H   0  0  0  0  0  0  0  0  0  0  0  0
    2.4000   -1.3856    0.0000 H   0  0  0  0  0  0  0  0  0  0  0  0
   -0.0000   -2.7713    0.0000 H   0  0  0  0  0  0  0  0  0  0  0  0
   -1.6000    0.0000    0.0000 C   0  0  0  0  0  0  0  0  0  0  0  0
   -2.4000    1.3856    0.0000 C   0  0  0  0  0  0  0  0  0  0  0  0
   -3.2000    2.7713    0.0000 H   0  0  0  0  0  0  0  0  0  0  0  0
   -4.0000    1.3856    0.0000 H   0  0  0  0  0  0  0  0  0  0  0  0
   -1.6000    2.7713    0.0000 H   0  0  0  0  0  0  0  0  0  0  0  0
   -2.4000   -1.3856    0.0000 C   0  0  0  0  0  0  0  0  0  0  0  0
   -4.0000   -1.3856    0.0000 H   0  0  0  0  0  0  0  0  0  0  0  0
   -1.6000   -2.7713    0.0000 H   0  0  0  0  0  0  0  0  0  0  0  0
  1  2  1  0  0  0  0
  1  3  1  0  0  0  0
  1  4  2  0  0  0  0
  4  5  1  0  0  0  0
  5  6  1  0  0  0  0
  5  7  1  0  0  0  0
  5  8  1  0  0  0  0
  4  9  1  0  0  0  0
  9 10  1  0  0  0  0
 10 11  1  0  0  0  0
 10 12  1  0  0  0  0
 10 13  1  0  0  0  0
  9 14  2  0  0  0  0
 14 15  1  0  0  0  0
 14 16  1  0  0  0  0
M  END
> <ChemID>
101330

> <source_casrn>
513-81-5

> <CAS>
513-81-5

> <SMILES>
CC(=C)C(C)=C

> <NAME>
2,3-DIMETHYL-1,3-BUTADIENE

> <preferred_name>
2,3-Dimethyl-1,3-butadiene

> <iupac>
2,3-dimethylbuta-1,3-diene

> <MPID>
25946

> <dsstox_substance_id>
DTXSID2022046

> <Canonical_QSARr>
CC(=C)C(C)=C

> <InChI_Code_QSARr>
InChI=1S/C6H10/c1-5(2)6(3)4/h1,3H2,2,4H3

> <InChI Key_QSARr>
SDJHPPZKZZWAKF-UHFFFAOYSA-N

> <Salt_Solvent>
?

> <LogVP>
2.1805

$$$$
101334
  -INDIGO-08031723152D

 35 37  0  0  0  0  0  0  0  0999 V2000
   -0.0001   -0.0000    0.0000 C   0  0  0  0  0  0  0  0  0  0  0  0
   -0.0001   -1.6000    0.0000 H   0  0  0  0  0  0  0  0  0  0  0  0
    1.5999   -0.0000    0.0000 C   0  0  0  0  0  0  0  0  0  0  0  0
    2.3999    1.3856    0.0000 C   0  0  0  0  0  0  0  0  0  0  0  0
    1.5999    2.7712    0.0000 H   0  0  0  0  0  0  0  0  0  0  0  0
    4.0000    1.3856    0.0000 C   0  0  0  0  0  0  0  0  0  0  0  0
    4.8000    2.7712    0.0000 H   0  0  0  0  0  0  0  0  0  0  0  0
    4.8000   -0.0000    0.0000 C   0  0  0  0  0  0  0  0  0  0  0  0
    6.4000   -0.0000    0.0000 H   0  0  0  0  0  0  0  0  0  0  0  0
    4.0000   -1.3857    0.0000 C   0  0  0  0  0  0  0  0  0  0  0  0
    4.8000   -2.7713    0.0000 H   0  0  0  0  0  0  0  0  0  0  0  0
    2.3999   -1.3857    0.0000 C   0  0  0  0  0  0  0  0  0  0  0  0
    1.5999   -2.7713    0.0000 H   0  0  0  0  0  0  0  0  0  0  0  0
    0.2778    1.5756    0.0000 C   0  0  0  0  0  0  0  0  0  0  0  0
   -0.7507    2.8014    0.0000 C   0  0  0  0  0  0  0  0  0  0  0  0
   -1.5999    2.7712    0.0000 H   0  0  0  0  0  0  0  0  0  0  0  0
   -0.2034    4.3048    0.0000 C   0  0  0  0  0  0  0  0  0  0  0  0
   -1.2318    5.5306    0.0000 H   0  0  0  0  0  0  0  0  0  0  0  0
    1.3724    4.5827    0.0000 C   0  0  0  0  0  0  0  0  0  0  0  0
    1.9195    6.0862    0.0000 H   0  0  0  0  0  0  0  0  0  0  0  0
    2.4007    3.3570    0.0000 C   0  0  0  0  0  0  0  0  0  0  0  0
    3.9765    3.6349    0.0000 H   0  0  0  0  0  0  0  0  0  0  0  0
    1.8534    1.8535    0.0000 C   0  0  0  0  0  0  0  0  0  0  0  0
    2.8820    0.6279    0.0000 H   0  0  0  0  0  0  0  0  0  0  0  0
   -1.5999   -0.0000    0.0000 C   0  0  0  0  0  0  0  0  0  0  0  0
   -2.3999    1.3856    0.0000 C   0  0  0  0  0  0  0  0  0  0  0  0
   -2.3451    2.2338    0.0000 H   0  0  0  0  0  0  0  0  0  0  0  0
   -4.0000    1.3856    0.0000 C   0  0  0  0  0  0  0  0  0  0  0  0
   -4.8000    2.7712    0.0000 H   0  0  0  0  0  0  0  0  0  0  0  0
   -4.8000   -0.0000    0.0000 C   0  0  0  0  0  0  0  0  0  0  0  0
   -6.4000   -0.0000    0.0000 H   0  0  0  0  0  0  0  0  0  0  0  0
   -4.0000   -1.3857    0.0000 C   0  0  0  0  0  0  0  0  0  0  0  0
   -4.8000   -2.7713    0.0000 H   0  0  0  0  0  0  0  0  0  0  0  0
   -2.3999   -1.3857    0.0000 C   0  0  0  0  0  0  0  0  0  0  0  0
   -1.5999   -2.7713    0.0000 H   0  0  0  0  0  0  0  0  0  0  0  0
  1  2  1  0  0  0  0
  1  3  1  0  0  0  0
  3  4  1  0  0  0  0
  4  5  1  0  0  0  0
  4  6  2  0  0  0  0
  6  7  1  0  0  0  0
  6  8  1  0  0  0  0
  8  9  1  0  0  0  0
  8 10  2  0  0  0  0
 10 11  1  0  0  0  0
 10 12  1  0  0  0  0
 12  3  2  0  0  0  0
 12 13  1  0  0  0  0
  1 14  1  0  0  0  0
 14 15  1  0  0  0  0
 15 16  1  0  0  0  0
 15 17  2  0  0  0  0
 17 18  1  0  0  0  0
 17 19  1  0  0  0  0
 19 20  1  0  0  0  0
 19 21  2  0  0  0  0
 21 22  1  0  0  0  0
 21 23  1  0  0  0  0
 23 14  2  0  0  0  0
 23 24  1  0  0  0  0
  1 25  1  0  0  0  0
 25 26  1  0  0  0  0
 26 27  1  0  0  0  0
 26 28  2  0  0  0  0
 28 29  1  0  0  0  0
 28 30  1  0  0  0  0
 30 31  1  0  0  0  0
 30 32  2  0  0  0  0
 32 33  1  0  0  0  0
 32 34  1  0  0  0  0
 34 25  2  0  0  0  0
 34 35  1  0  0  0  0
M  END
> <ChemID>
101334

> <source_casrn>
519-73-3

> <CAS>
519-73-3

> <SMILES>
c1ccccc1C(c1ccccc1)c1ccccc1

> <NAME>
TRIPHENYLMETHANE

> <preferred_name>
Benzene, 1,1',1''-methylidynetris-

> <iupac>


> <MPID>
25950

> <dsstox_substance_id>
DTXSID3060164

> <Canonical_QSARr>
c1ccccc1C(c1ccccc1)c1ccccc1

> <InChI_Code_QSARr>
InChI=1S/C19H16/c1-4-10-16(11-5-1)19(17-12-6-2-7-13-17)18-14-8-3-9-15-18/h1-15,19H

> <InChI Key_QSARr>
AAAQKTZKLRYKHR-UHFFFAOYSA-N

> <Salt_Solvent>
?

> <LogVP>
-5.2534

$$$$
101338
  -INDIGO-08031723152D

 24 24  0  0  0  0  0  0  0  0999 V2000
    1.3857    0.8000    0.0000 C   0  0  0  0  0  0  0  0  0  0  0  0
    2.7713    1.5999    0.0000 H   0  0  0  0  0  0  0  0  0  0  0  0
    2.7713   -0.0001    0.0000 H   0  0  0  0  0  0  0  0  0  0  0  0
    1.3857    2.4000    0.0000 H   0  0  0  0  0  0  0  0  0  0  0  0
    0.0000   -0.0001    0.0000 C   0  0  0  0  0  0  0  0  0  0  0  0
   -1.3857    0.8000    0.0000 C   0  0  0  0  0  0  0  0  0  0  0  0
   -1.3857    2.4000    0.0000 C   0  0  0  0  0  0  0  0  0  0  0  0
   -1.3857    4.0000    0.0000 H   0  0  0  0  0  0  0  0  0  0  0  0
   -2.7713    3.1999    0.0000 H   0  0  0  0  0  0  0  0  0  0  0  0
    0.0000    3.1999    0.0000 H   0  0  0  0  0  0  0  0  0  0  0  0
   -2.7713    0.0001    0.0000 C   0  0  0  0  0  0  0  0  0  0  0  0
   -4.1570    0.8000    0.0000 H   0  0  0  0  0  0  0  0  0  0  0  0
   -2.7713   -1.5999    0.0000 C   0  0  0  0  0  0  0  0  0  0  0  0
   -4.1569   -2.4000    0.0000 C   0  0  0  0  0  0  0  0  0  0  0  0
   -5.5426   -3.1999    0.0000 H   0  0  0  0  0  0  0  0  0  0  0  0
   -4.1569   -4.0000    0.0000 H   0  0  0  0  0  0  0  0  0  0  0  0
   -5.5426   -1.6001    0.0000 H   0  0  0  0  0  0  0  0  0  0  0  0
   -1.3856   -2.4000    0.0000 C   0  0  0  0  0  0  0  0  0  0  0  0
   -1.3857   -4.0000    0.0000 H   0  0  0  0  0  0  0  0  0  0  0  0
    0.0000   -1.5999    0.0000 C   0  0  0  0  0  0  0  0  0  0  0  0
    1.3857   -2.4000    0.0000 C   0  0  0  0  0  0  0  0  0  0  0  0
    2.7713   -3.1999    0.0000 H   0  0  0  0  0  0  0  0  0  0  0  0
    1.3857   -4.0000    0.0000 H   0  0  0  0  0  0  0  0  0  0  0  0
    2.7713   -1.5999    0.0000 H   0  0  0  0  0  0  0  0  0  0  0  0
  1  2  1  0  0  0  0
  1  3  1  0  0  0  0
  1  4  1  0  0  0  0
  1  5  1  0  0  0  0
  5  6  1  0  0  0  0
  6  7  1  0  0  0  0
  7  8  1  0  0  0  0
  7  9  1  0  0  0  0
  7 10  1  0  0  0  0
  6 11  2  0  0  0  0
 11 12  1  0  0  0  0
 11 13  1  0  0  0  0
 13 14  1  0  0  0  0
 14 15  1  0  0  0  0
 14 16  1  0  0  0  0
 14 17  1  0  0  0  0
 13 18  2  0  0  0  0
 18 19  1  0  0  0  0
 18 20  1  0  0  0  0
 20  5  2  0  0  0  0
 20 21  1  0  0  0  0
 21 22  1  0  0  0  0
 21 23  1  0  0  0  0
 21 24  1  0  0  0  0
M  END
> <ChemID>
101338

> <source_casrn>
527-53-7

> <CAS>
527-53-7

> <SMILES>
Cc1cc(C)c(C)c(C)c1

> <NAME>
1,2,3,5-TETRAMETHYLBENZENE

> <preferred_name>
1,2,3,5-Tetramethylbenzene

> <iupac>
1,2,3,5-tetramethylbenzene

> <MPID>
25954

> <dsstox_substance_id>
DTXSID6026119

> <Canonical_QSARr>
Cc1cc(C)c(C)c(C)c1

> <InChI_Code_QSARr>
InChI=1S/C10H14/c1-7-5-8(2)10(4)9(3)6-7/h5-6H,1-4H3

> <InChI Key_QSARr>
BFIMMTCNYPIMRN-UHFFFAOYSA-N

> <Salt_Solvent>
?

> <LogVP>
-0.303

$$$$
101342
  -INDIGO-08031723152D

 16 16  0  0  0  0  0  0  0  0999 V2000
    0.0000    1.6000    0.0000 C   0  0  0  0  0  0  0  0  0  0  0  0
    1.3856    2.4000    0.0000 C   0  0  0  0  0  0  0  0  0  0  0  0
    2.7713    3.2000    0.0000 N   0  0  0  0  0  0  0  0  0  0  0  0
   -1.3856    2.4000    0.0000 C   0  0  0  0  0  0  0  0  0  0  0  0
   -1.3856    4.0000    0.0000 H   0  0  0  0  0  0  0  0  0  0  0  0
   -2.7713    1.6000    0.0000 C   0  0  0  0  0  0  0  0  0  0  0  0
   -4.1569    2.4000    0.0000 H   0  0  0  0  0  0  0  0  0  0  0  0
   -2.7713    0.0000    0.0000 C   0  0  0  0  0  0  0  0  0  0  0  0
   -4.1569   -0.8000    0.0000 H   0  0  0  0  0  0  0  0  0  0  0  0
   -1.3856   -0.8000    0.0000 C   0  0  0  0  0  0  0  0  0  0  0  0
   -1.3856   -2.4000    0.0000 H   0  0  0  0  0  0  0  0  0  0  0  0
    0.0000    0.0000    0.0000 C   0  0  0  0  0  0  0  0  0  0  0  0
    1.3856   -0.8000    0.0000 C   0  0  0  0  0  0  0  0  0  0  0  0
    2.7713   -1.6000    0.0000 H   0  0  0  0  0  0  0  0  0  0  0  0
    1.3856   -2.4000    0.0000 H   0  0  0  0  0  0  0  0  0  0  0  0
    2.7713    0.0000    0.0000 H   0  0  0  0  0  0  0  0  0  0  0  0
  1  2  1  0  0  0  0
  2  3  3  0  0  0  0
  1  4  1  0  0  0  0
  4  5  1  0  0  0  0
  4  6  2  0  0  0  0
  6  7  1  0  0  0  0
  6  8  1  0  0  0  0
  8  9  1  0  0  0  0
  8 10  2  0  0  0  0
 10 11  1  0  0  0  0
 10 12  1  0  0  0  0
 12  1  2  0  0  0  0
 12 13  1  0  0  0  0
 13 14  1  0  0  0  0
 13 15  1  0  0  0  0
 13 16  1  0  0  0  0
M  END
> <ChemID>
101342

> <source_casrn>
529-19-1

> <CAS>
529-19-1

> <SMILES>
Cc1ccccc1C#N

> <NAME>
2-METHYLBENZONITRILE

> <preferred_name>
2-Tolunitrile

> <iupac>
2-methylbenzonitrile

> <MPID>
25958

> <dsstox_substance_id>
DTXSID6022050

> <Canonical_QSARr>
Cc1ccccc1C#N

> <InChI_Code_QSARr>
InChI=1S/C8H7N/c1-7-4-2-3-5-8(7)6-9/h2-5H,1H3

> <InChI Key_QSARr>
NWPNXBQSRGKSJB-UHFFFAOYSA-N

> <Salt_Solvent>
?

> <LogVP>
-0.3483

$$$$
101346
  -INDIGO-08031723152D

 34 34  0  0  0  0  0  0  0  0999 V2000
    2.7714    0.0000    0.0000 C   0  0  0  0  0  0  0  0  0  0  0  0
    2.7714   -1.6000    0.0000 C   0  0  0  0  0  0  0  0  0  0  0  0
    4.1568   -2.4000    0.0000 H   0  0  0  0  0  0  0  0  0  0  0  0
    1.3857   -2.4000    0.0000 C   0  0  0  0  0  0  0  0  0  0  0  0
    1.3857   -4.0000    0.0000 O   0  0  0  0  0  0  0  0  0  0  0  0
   -0.0000   -1.6000    0.0000 C   0  0  0  0  0  0  0  0  0  0  0  0
   -0.5473   -3.1035    0.0000 H   0  0  0  0  0  0  0  0  0  0  0  0
   -1.5757   -1.3222    0.0000 H   0  0  0  0  0  0  0  0  0  0  0  0
   -0.0000    0.0000    0.0000 C   0  0  0  0  0  0  0  0  0  0  0  0
   -1.5757   -0.2778    0.0000 C   0  0  0  0  0  0  0  0  0  0  0  0
   -3.1514   -0.5557    0.0000 H   0  0  0  0  0  0  0  0  0  0  0  0
   -2.6041    0.9478    0.0000 H   0  0  0  0  0  0  0  0  0  0  0  0
   -2.6041   -1.5035    0.0000 H   0  0  0  0  0  0  0  0  0  0  0  0
   -0.5473    1.5035    0.0000 C   0  0  0  0  0  0  0  0  0  0  0  0
   -1.0944    3.0070    0.0000 H   0  0  0  0  0  0  0  0  0  0  0  0
    0.4813    2.7291    0.0000 H   0  0  0  0  0  0  0  0  0  0  0  0
   -2.1230    1.7814    0.0000 H   0  0  0  0  0  0  0  0  0  0  0  0
    1.3857    0.8000    0.0000 O   0  0  0  0  0  0  0  0  0  0  0  0
    4.1568    0.8000    0.0000 C   0  0  0  0  0  0  0  0  0  0  0  0
    4.1568    2.4000    0.0000 O   0  0  0  0  0  0  0  0  0  0  0  0
    5.5425    0.0000    0.0000 O   0  0  0  0  0  0  0  0  0  0  0  0
    6.9282    0.8000    0.0000 C   0  0  0  0  0  0  0  0  0  0  0  0
    7.5404    2.2782    0.0000 H   0  0  0  0  0  0  0  0  0  0  0  0
    6.3158    2.2782    0.0000 H   0  0  0  0  0  0  0  0  0  0  0  0
    8.3139    0.0000    0.0000 C   0  0  0  0  0  0  0  0  0  0  0  0
    7.7015   -1.4782    0.0000 H   0  0  0  0  0  0  0  0  0  0  0  0
    8.9261   -1.4782    0.0000 H   0  0  0  0  0  0  0  0  0  0  0  0
    9.6994    0.8000    0.0000 C   0  0  0  0  0  0  0  0  0  0  0  0
   10.3118    2.2782    0.0000 H   0  0  0  0  0  0  0  0  0  0  0  0
    9.0872    2.2782    0.0000 H   0  0  0  0  0  0  0  0  0  0  0  0
   11.0851    0.0000    0.0000 C   0  0  0  0  0  0  0  0  0  0  0  0
   12.4708   -0.8000    0.0000 H   0  0  0  0  0  0  0  0  0  0  0  0
   12.4708    0.8000    0.0000 H   0  0  0  0  0  0  0  0  0  0  0  0
   11.0851   -1.6000    0.0000 H   0  0  0  0  0  0  0  0  0  0  0  0
  1  2  2  0  0  0  0
  2  3  1  0  0  0  0
  2  4  1  0  0  0  0
  4  5  2  0  0  0  0
  4  6  1  0  0  0  0
  6  7  1  0  0  0  0
  6  8  1  0  0  0  0
  6  9  1  0  0  0  0
  9 10  1  0  0  0  0
 10 11  1  0  0  0  0
 10 12  1  0  0  0  0
 10 13  1  0  0  0  0
  9 14  1  0  0  0  0
 14 15  1  0  0  0  0
 14 16  1  0  0  0  0
 14 17  1  0  0  0  0
  9 18  1  0  0  0  0
 18  1  1  0  0  0  0
  1 19  1  0  0  0  0
 19 20  2  0  0  0  0
 19 21  1  0  0  0  0
 21 22  1  0  0  0  0
 22 23  1  0  0  0  0
 22 24  1  0  0  0  0
 22 25  1  0  0  0  0
 25 26  1  0  0  0  0
 25 27  1  0  0  0  0
 25 28  1  0  0  0  0
 28 29  1  0  0  0  0
 28 30  1  0  0  0  0
 28 31  1  0  0  0  0
 31 32  1  0  0  0  0
 31 33  1  0  0  0  0
 31 34  1  0  0  0  0
M  END
> <ChemID>
101346

> <source_casrn>
532-34-3

> <CAS>
532-34-3

> <SMILES>
CCCCOC(=O)C1=CC(=O)CC(C)(C)O1

> <NAME>
INDALONE

> <preferred_name>
Butopyronoxyl

> <iupac>
butyl 2,2-dimethyl-4-oxo-3,4-dihydro-2H-pyran-6-carboxylate

> <MPID>
25962

> <dsstox_substance_id>
DTXSID2040319

> <Canonical_QSARr>
CCCCOC(=O)C1=CC(=O)CC(C)(C)O1

> <InChI_Code_QSARr>
InChI=1S/C12H18O4/c1-4-5-6-15-11(14)10-7-9(13)8-12(2,3)16-10/h7H,4-6,8H2,1-3H3

> <InChI Key_QSARr>
OKIJSNGRQAOIGZ-UHFFFAOYSA-N

> <Salt_Solvent>
?

> <LogVP>
-3.5229

$$$$
101351
  -INDIGO-08031723152D

 16 15  0  0  0  0  0  0  0  0999 V2000
    0.0001    0.0000    0.0000 C   0  0  0  0  0  0  0  0  0  0  0  0
    1.6001    0.0000    0.0000 H   0  0  0  0  0  0  0  0  0  0  0  0
   -0.8000   -1.3856    0.0000 C   0  0  0  0  0  0  0  0  0  0  0  0
   -1.6001   -2.7713    0.0000 H   0  0  0  0  0  0  0  0  0  0  0  0
    0.0001   -2.7713    0.0000 H   0  0  0  0  0  0  0  0  0  0  0  0
   -2.4000   -1.3856    0.0000 H   0  0  0  0  0  0  0  0  0  0  0  0
    0.8000    1.3856    0.0000 O   0  0  0  0  0  0  0  0  0  0  0  0
    2.4000    1.3856    0.0000 C   0  0  0  0  0  0  0  0  0  0  0  0
    4.0000    1.3856    0.0000 H   0  0  0  0  0  0  0  0  0  0  0  0
    3.2001    2.7713    0.0000 H   0  0  0  0  0  0  0  0  0  0  0  0
    3.2001    0.0000    0.0000 H   0  0  0  0  0  0  0  0  0  0  0  0
   -0.8000    1.3856    0.0000 O   0  0  0  0  0  0  0  0  0  0  0  0
   -2.4000    1.3856    0.0000 C   0  0  0  0  0  0  0  0  0  0  0  0
   -3.2001    2.7713    0.0000 H   0  0  0  0  0  0  0  0  0  0  0  0
   -4.0000    1.3856    0.0000 H   0  0  0  0  0  0  0  0  0  0  0  0
   -1.5999    2.7713    0.0000 H   0  0  0  0  0  0  0  0  0  0  0  0
  1  2  1  0  0  0  0
  1  3  1  0  0  0  0
  3  4  1  0  0  0  0
  3  5  1  0  0  0  0
  3  6  1  0  0  0  0
  1  7  1  0  0  0  0
  7  8  1  0  0  0  0
  8  9  1  0  0  0  0
  8 10  1  0  0  0  0
  8 11  1  0  0  0  0
  1 12  1  0  0  0  0
 12 13  1  0  0  0  0
 13 14  1  0  0  0  0
 13 15  1  0  0  0  0
 13 16  1  0  0  0  0
M  END
> <ChemID>
101351

> <source_casrn>
534-15-6

> <CAS>
534-15-6

> <SMILES>
CC(OC)OC

> <NAME>
1,1-DIMETHOXYETHANE

> <preferred_name>
1,1-Dimethoxyethane

> <iupac>
1,1-dimethoxyethane

> <MPID>
25966

> <dsstox_substance_id>
DTXSID7027178

> <Canonical_QSARr>
CC(OC)OC

> <InChI_Code_QSARr>
InChI=1S/C4H10O2/c1-4(5-2)6-3/h4H,1-3H3

> <InChI Key_QSARr>
SPEUIVXLLWOEMJ-UHFFFAOYSA-N

> <Salt_Solvent>
?

> <LogVP>
2.2335

$$$$
101355
  -INDIGO-08031723152D

 14 13  0  0  0  0  0  0  0  0999 V2000
   -2.7713    0.0000    0.0000 C   0  0  0  0  0  0  0  0  0  0  0  0
   -1.3857    0.8000    0.0000 O   0  0  0  0  0  0  0  0  0  0  0  0
    0.0000    0.0000    0.0000 C   0  0  0  0  0  0  0  0  0  0  0  0
    0.6122   -1.4782    0.0000 H   0  0  0  0  0  0  0  0  0  0  0  0
   -0.6122   -1.4782    0.0000 H   0  0  0  0  0  0  0  0  0  0  0  0
    1.3856    0.8000    0.0000 C   0  0  0  0  0  0  0  0  0  0  0  0
    2.7713    1.6000    0.0000 H   0  0  0  0  0  0  0  0  0  0  0  0
    2.7713    0.0000    0.0000 H   0  0  0  0  0  0  0  0  0  0  0  0
    1.3856    2.4000    0.0000 H   0  0  0  0  0  0  0  0  0  0  0  0
   -4.1569    0.8000    0.0000 C   0  0  0  0  0  0  0  0  0  0  0  0
   -5.5426    1.6000    0.0000 H   0  0  0  0  0  0  0  0  0  0  0  0
   -5.5426    0.0000    0.0000 Cl  0  0  0  0  0  0  0  0  0  0  0  0
   -4.1569    2.4000    0.0000 Cl  0  0  0  0  0  0  0  0  0  0  0  0
   -2.7713   -1.6000    0.0000 O   0  0  0  0  0  0  0  0  0  0  0  0
  1  2  1  0  0  0  0
  2  3  1  0  0  0  0
  3  4  1  0  0  0  0
  3  5  1  0  0  0  0
  3  6  1  0  0  0  0
  6  7  1  0  0  0  0
  6  8  1  0  0  0  0
  6  9  1  0  0  0  0
  1 10  1  0  0  0  0
 10 11  1  0  0  0  0
 10 12  1  0  0  0  0
 10 13  1  0  0  0  0
  1 14  2  0  0  0  0
M  END
> <ChemID>
101355

> <source_casrn>
535-15-9

> <CAS>
535-15-9

> <SMILES>
CCOC(=O)C(Cl)Cl

> <NAME>
ETHYL DICHLOROACETATE

> <preferred_name>
Acetic acid, dichloro-, ethyl ester

> <iupac>
Ethyl 2,2-dichloroacetate

> <MPID>
25970

> <dsstox_substance_id>
DTXSID7060205

> <Canonical_QSARr>
CCOC(=O)C(Cl)Cl

> <InChI_Code_QSARr>
InChI=1S/C4H6Cl2O2/c1-2-8-4(7)3(5)6/h3H,2H2,1H3

> <InChI Key_QSARr>
IWYBVQLPTCMVFO-UHFFFAOYSA-N

> <Salt_Solvent>
?

> <LogVP>
0.4559

$$$$
101359
  -INDIGO-08031723152D

 17 17  0  0  0  0  0  0  0  0999 V2000
    1.3857   -0.8000    0.0000 C   0  0  0  0  0  0  0  0  0  0  0  0
    2.7713    0.0000    0.0000 C   0  0  0  0  0  0  0  0  0  0  0  0
    2.7713    1.6000    0.0000 H   0  0  0  0  0  0  0  0  0  0  0  0
    4.1570   -0.8000    0.0000 C   0  0  0  0  0  0  0  0  0  0  0  0
    5.5426    0.0000    0.0000 H   0  0  0  0  0  0  0  0  0  0  0  0
    4.1570   -2.4000    0.0000 C   0  0  0  0  0  0  0  0  0  0  0  0
    5.5426   -3.2000    0.0000 H   0  0  0  0  0  0  0  0  0  0  0  0
    2.7713   -3.2000    0.0000 N   0  0  0  0  0  0  0  0  0  0  0  0
    1.3857   -2.4000    0.0000 C   0  0  0  0  0  0  0  0  0  0  0  0
    0.0000   -3.2000    0.0000 H   0  0  0  0  0  0  0  0  0  0  0  0
    0.0000    0.0000    0.0000 C   0  0  0  0  0  0  0  0  0  0  0  0
    0.6122    1.4782    0.0000 H   0  0  0  0  0  0  0  0  0  0  0  0
   -0.6122    1.4782    0.0000 H   0  0  0  0  0  0  0  0  0  0  0  0
   -1.3857   -0.8000    0.0000 C   0  0  0  0  0  0  0  0  0  0  0  0
   -2.7713    0.0000    0.0000 H   0  0  0  0  0  0  0  0  0  0  0  0
   -2.7713   -1.6000    0.0000 H   0  0  0  0  0  0  0  0  0  0  0  0
   -1.3856    0.8000    0.0000 H   0  0  0  0  0  0  0  0  0  0  0  0
  1  2  1  0  0  0  0
  2  3  1  0  0  0  0
  2  4  2  0  0  0  0
  4  5  1  0  0  0  0
  4  6  1  0  0  0  0
  6  7  1  0  0  0  0
  6  8  2  0  0  0  0
  8  9  1  0  0  0  0
  9  1  2  0  0  0  0
  9 10  1  0  0  0  0
  1 11  1  0  0  0  0
 11 12  1  0  0  0  0
 11 13  1  0  0  0  0
 11 14  1  0  0  0  0
 14 15  1  0  0  0  0
 14 16  1  0  0  0  0
 14 17  1  0  0  0  0
M  END
> <ChemID>
101359

> <source_casrn>
536-78-7

> <CAS>
536-78-7

> <SMILES>
CCc1c[n]ccc1

> <NAME>
3-ETHYLPYRIDINE

> <preferred_name>
3-Ethylpyridine

> <iupac>
3-ETHYLPYRIDINE

> <MPID>
25974

> <dsstox_substance_id>
DTXSID6060212

> <Canonical_QSARr>
CCc1c[n]ccc1

> <InChI_Code_QSARr>
InChI=1S/C7H9N/c1-2-7-4-3-5-8-6-7/h3-6H,2H2,1H3

> <InChI Key_QSARr>
MFEIKQPHQINPRI-UHFFFAOYSA-N

> <Salt_Solvent>
?

> <LogVP>
0.4031

$$$$
101365
  -INDIGO-08031723152D

 22 22  0  0  0  0  0  0  0  0999 V2000
    0.0001   -0.0000    0.0000 C   0  0  0  0  0  0  0  0  0  0  0  0
    0.0001   -1.6000    0.0000 C   0  0  0  0  0  0  0  0  0  0  0  0
    1.3857   -2.4000    0.0000 H   0  0  0  0  0  0  0  0  0  0  0  0
   -1.3856   -2.4000    0.0000 C   0  0  0  0  0  0  0  0  0  0  0  0
   -1.3856   -4.0000    0.0000 H   0  0  0  0  0  0  0  0  0  0  0  0
   -2.7713   -1.6000    0.0000 C   0  0  0  0  0  0  0  0  0  0  0  0
   -4.1569   -2.4000    0.0000 H   0  0  0  0  0  0  0  0  0  0  0  0
   -2.7713   -0.0000    0.0000 C   0  0  0  0  0  0  0  0  0  0  0  0
   -4.1569    0.8000    0.0000 H   0  0  0  0  0  0  0  0  0  0  0  0
   -1.3856    0.8000    0.0000 C   0  0  0  0  0  0  0  0  0  0  0  0
   -1.3856    2.4000    0.0000 H   0  0  0  0  0  0  0  0  0  0  0  0
    1.3857    0.8000    0.0000 C   0  0  0  0  0  0  0  0  0  0  0  0
    1.9979    2.2782    0.0000 H   0  0  0  0  0  0  0  0  0  0  0  0
    0.7734    2.2782    0.0000 H   0  0  0  0  0  0  0  0  0  0  0  0
    2.7712   -0.0000    0.0000 O   0  0  0  0  0  0  0  0  0  0  0  0
    4.1569    0.8000    0.0000 C   0  0  0  0  0  0  0  0  0  0  0  0
    4.7692    2.2782    0.0000 H   0  0  0  0  0  0  0  0  0  0  0  0
    3.5446    2.2782    0.0000 H   0  0  0  0  0  0  0  0  0  0  0  0
    5.5425   -0.0000    0.0000 C   0  0  0  0  0  0  0  0  0  0  0  0
    6.9282   -0.8000    0.0000 H   0  0  0  0  0  0  0  0  0  0  0  0
    6.9282    0.8000    0.0000 H   0  0  0  0  0  0  0  0  0  0  0  0
    5.5425   -1.6000    0.0000 H   0  0  0  0  0  0  0  0  0  0  0  0
  1  2  1  0  0  0  0
  2  3  1  0  0  0  0
  2  4  2  0  0  0  0
  4  5  1  0  0  0  0
  4  6  1  0  0  0  0
  6  7  1  0  0  0  0
  6  8  2  0  0  0  0
  8  9  1  0  0  0  0
  8 10  1  0  0  0  0
 10  1  2  0  0  0  0
 10 11  1  0  0  0  0
  1 12  1  0  0  0  0
 12 13  1  0  0  0  0
 12 14  1  0  0  0  0
 12 15  1  0  0  0  0
 15 16  1  0  0  0  0
 16 17  1  0  0  0  0
 16 18  1  0  0  0  0
 16 19  1  0  0  0  0
 19 20  1  0  0  0  0
 19 21  1  0  0  0  0
 19 22  1  0  0  0  0
M  END
> <ChemID>
101365

> <source_casrn>
539-30-0

> <CAS>
539-30-0

> <SMILES>
CCOCc1ccccc1

> <NAME>
BENZYL ETHYL ETHER

> <preferred_name>
Benzyl ethyl ether

> <iupac>
ethoxymethylbenzene

> <MPID>
25978

> <dsstox_substance_id>
DTXSID4060230

> <Canonical_QSARr>
CCOCc1ccccc1

> <InChI_Code_QSARr>
InChI=1S/C9H12O/c1-2-10-8-9-6-4-3-5-7-9/h3-7H,2,8H2,1H3

> <InChI Key_QSARr>
AXPZDYVDTMMLNB-UHFFFAOYSA-N

> <Salt_Solvent>
?

> <LogVP>
-0.0339

$$$$
101369
  -INDIGO-08031723152D

 23 22  0  0  0  0  0  0  0  0999 V2000
   -4.1569   -0.8000    0.0000 C   0  0  0  0  0  0  0  0  0  0  0  0
   -2.7712    0.0000    0.0000 O   0  0  0  0  0  0  0  0  0  0  0  0
   -1.3857   -0.8000    0.0000 C   0  0  0  0  0  0  0  0  0  0  0  0
   -0.7734   -2.2782    0.0000 H   0  0  0  0  0  0  0  0  0  0  0  0
   -1.9979   -2.2782    0.0000 H   0  0  0  0  0  0  0  0  0  0  0  0
   -0.0000    0.0000    0.0000 C   0  0  0  0  0  0  0  0  0  0  0  0
    0.8000   -1.3856    0.0000 H   0  0  0  0  0  0  0  0  0  0  0  0
    1.3856    0.8000    0.0000 C   0  0  0  0  0  0  0  0  0  0  0  0
    2.7713    1.6000    0.0000 H   0  0  0  0  0  0  0  0  0  0  0  0
    2.7713    0.0000    0.0000 H   0  0  0  0  0  0  0  0  0  0  0  0
    1.3856    2.4000    0.0000 H   0  0  0  0  0  0  0  0  0  0  0  0
   -0.7999    1.3856    0.0000 C   0  0  0  0  0  0  0  0  0  0  0  0
   -1.6000    2.7713    0.0000 H   0  0  0  0  0  0  0  0  0  0  0  0
   -2.3999    1.3856    0.0000 H   0  0  0  0  0  0  0  0  0  0  0  0
   -0.0000    2.7713    0.0000 H   0  0  0  0  0  0  0  0  0  0  0  0
   -5.5425    0.0000    0.0000 C   0  0  0  0  0  0  0  0  0  0  0  0
   -6.1548    1.4782    0.0000 H   0  0  0  0  0  0  0  0  0  0  0  0
   -4.9302    1.4782    0.0000 H   0  0  0  0  0  0  0  0  0  0  0  0
   -6.9282   -0.8000    0.0000 C   0  0  0  0  0  0  0  0  0  0  0  0
   -8.3138   -1.6000    0.0000 H   0  0  0  0  0  0  0  0  0  0  0  0
   -8.3138    0.0000    0.0000 H   0  0  0  0  0  0  0  0  0  0  0  0
   -6.9282   -2.4000    0.0000 H   0  0  0  0  0  0  0  0  0  0  0  0
   -4.1569   -2.4000    0.0000 O   0  0  0  0  0  0  0  0  0  0  0  0
  1  2  1  0  0  0  0
  2  3  1  0  0  0  0
  3  4  1  0  0  0  0
  3  5  1  0  0  0  0
  3  6  1  0  0  0  0
  6  7  1  0  0  0  0
  6  8  1  0  0  0  0
  8  9  1  0  0  0  0
  8 10  1  0  0  0  0
  8 11  1  0  0  0  0
  6 12  1  0  0  0  0
 12 13  1  0  0  0  0
 12 14  1  0  0  0  0
 12 15  1  0  0  0  0
  1 16  1  0  0  0  0
 16 17  1  0  0  0  0
 16 18  1  0  0  0  0
 16 19  1  0  0  0  0
 19 20  1  0  0  0  0
 19 21  1  0  0  0  0
 19 22  1  0  0  0  0
  1 23  2  0  0  0  0
M  END
> <ChemID>
101369

> <source_casrn>
540-42-1

> <CAS>
540-42-1

> <SMILES>
CCC(=O)OCC(C)C

> <NAME>
2-METHYLPROPYL PROPANOATE

> <preferred_name>
Propanoic acid, 2-methylpropyl ester

> <iupac>
2-METHYLPROPYL PROPANOATE

> <MPID>
25982

> <dsstox_substance_id>
DTXSID8060240

> <Canonical_QSARr>
CCC(=O)OCC(C)C

> <InChI_Code_QSARr>
InChI=1S/C7H14O2/c1-4-7(8)9-5-6(2)3/h6H,4-5H2,1-3H3

> <InChI Key_QSARr>
FZXRXKLUIMKDEL-UHFFFAOYSA-N

> <Salt_Solvent>
?

> <LogVP>
0.8106

$$$$
101373
  -INDIGO-08031723152D

 10  9  0  0  0  0  0  0  0  0999 V2000
   -0.0000    0.0000    0.0000 C   0  0  0  0  0  0  0  0  0  0  0  0
    1.2693    0.9740    0.0000 H   0  0  0  0  0  0  0  0  0  0  0  0
    0.2089    1.5863    0.0000 H   0  0  0  0  0  0  0  0  0  0  0  0
   -1.6000    0.0000    0.0000 C   0  0  0  0  0  0  0  0  0  0  0  0
   -2.8693   -0.9740    0.0000 H   0  0  0  0  0  0  0  0  0  0  0  0
   -1.8089   -1.5863    0.0000 H   0  0  0  0  0  0  0  0  0  0  0  0
   -2.4000    1.3856    0.0000 S   0  0  0  0  0  0  0  0  0  0  0  0
   -4.0000    1.3856    0.0000 H   0  0  0  0  0  0  0  0  0  0  0  0
    0.8000   -1.3856    0.0000 S   0  0  0  0  0  0  0  0  0  0  0  0
    2.4000   -1.3856    0.0000 H   0  0  0  0  0  0  0  0  0  0  0  0
  1  2  1  0  0  0  0
  1  3  1  0  0  0  0
  1  4  1  0  0  0  0
  4  5  1  0  0  0  0
  4  6  1  0  0  0  0
  4  7  1  0  0  0  0
  7  8  1  0  0  0  0
  1  9  1  0  0  0  0
  9 10  1  0  0  0  0
M  END
> <ChemID>
101373

> <source_casrn>
540-63-6

> <CAS>
540-63-6

> <SMILES>
SCCS

> <NAME>
1,2-ETHANEDITHIOL

> <preferred_name>
Ethane-1,2-dithiol

> <iupac>
ethane-1,2-dithiol

> <MPID>
25986

> <dsstox_substance_id>
DTXSID9052187

> <Canonical_QSARr>
SCCS

> <InChI_Code_QSARr>
InChI=1S/C2H6S2/c3-1-2-4/h3-4H,1-2H2

> <InChI Key_QSARr>
VYMPLPIFKRHAAC-UHFFFAOYSA-N

> <Salt_Solvent>
?

> <LogVP>
0.7488

$$$$
101377
  -INDIGO-08031723152D

 20 19  0  0  0  0  0  0  0  0999 V2000
   -3.5086    0.9814    0.0000 O   0  0  0  0  0  0  0  0  0  0  0  0
   -2.9614   -0.5222    0.0000 C   0  0  0  0  0  0  0  0  0  0  0  0
   -1.3856   -0.8000    0.0000 O   0  0  0  0  0  0  0  0  0  0  0  0
    0.0000   -0.0000    0.0000 C   0  0  0  0  0  0  0  0  0  0  0  0
   -0.8000    1.3856    0.0000 C   0  0  0  0  0  0  0  0  0  0  0  0
   -1.5999    2.7713    0.0000 H   0  0  0  0  0  0  0  0  0  0  0  0
    0.0000    2.7713    0.0000 H   0  0  0  0  0  0  0  0  0  0  0  0
   -2.4000    1.3856    0.0000 H   0  0  0  0  0  0  0  0  0  0  0  0
    1.3857    0.8000    0.0000 C   0  0  0  0  0  0  0  0  0  0  0  0
    2.7713    1.6000    0.0000 H   0  0  0  0  0  0  0  0  0  0  0  0
    2.7713   -0.0000    0.0000 H   0  0  0  0  0  0  0  0  0  0  0  0
    1.3857    2.4000    0.0000 H   0  0  0  0  0  0  0  0  0  0  0  0
    0.8000   -1.3856    0.0000 C   0  0  0  0  0  0  0  0  0  0  0  0
    1.6001   -2.7713    0.0000 H   0  0  0  0  0  0  0  0  0  0  0  0
    0.0000   -2.7713    0.0000 H   0  0  0  0  0  0  0  0  0  0  0  0
    2.4000   -1.3856    0.0000 H   0  0  0  0  0  0  0  0  0  0  0  0
   -3.9899   -1.7479    0.0000 C   0  0  0  0  0  0  0  0  0  0  0  0
   -5.0182   -2.9735    0.0000 H   0  0  0  0  0  0  0  0  0  0  0  0
   -5.5655   -1.4700    0.0000 H   0  0  0  0  0  0  0  0  0  0  0  0
   -3.4426   -3.2513    0.0000 H   0  0  0  0  0  0  0  0  0  0  0  0
  1  2  2  0  0  0  0
  2  3  1  0  0  0  0
  3  4  1  0  0  0  0
  4  5  1  0  0  0  0
  5  6  1  0  0  0  0
  5  7  1  0  0  0  0
  5  8  1  0  0  0  0
  4  9  1  0  0  0  0
  9 10  1  0  0  0  0
  9 11  1  0  0  0  0
  9 12  1  0  0  0  0
  4 13  1  0  0  0  0
 13 14  1  0  0  0  0
 13 15  1  0  0  0  0
 13 16  1  0  0  0  0
  2 17  1  0  0  0  0
 17 18  1  0  0  0  0
 17 19  1  0  0  0  0
 17 20  1  0  0  0  0
M  END
> <ChemID>
101377

> <source_casrn>
540-88-5

> <CAS>
540-88-5

> <SMILES>
CC(=O)OC(C)(C)C

> <NAME>
T-BUTYL ACETATE

> <preferred_name>
tert-Butyl acetate

> <iupac>
tert-butyl acetate

> <MPID>
25990

> <dsstox_substance_id>
DTXSID1022055

> <Canonical_QSARr>
CC(=O)OC(C)(C)C

> <InChI_Code_QSARr>
InChI=1S/C6H12O2/c1-5(7)8-6(2,3)4/h1-4H3

> <InChI Key_QSARr>
WMOVHXAZOJBABW-UHFFFAOYSA-N

> <Salt_Solvent>
?

> <LogVP>
1.6721

$$$$
101381
  -INDIGO-08031723152D

 30 30  0  0  0  0  0  0  0  0999 V2000
    0.0000    1.6000    0.0000 O   0  0  0  0  0  0  0  0  0  0  0  0
   -1.3856    2.4000    0.0000 Si  0  0  0  0  0  0  0  0  0  0  0  0
   -0.3572    3.6257    0.0000 C   0  0  0  0  0  0  0  0  0  0  0  0
    0.6713    4.8513    0.0000 H   0  0  0  0  0  0  0  0  0  0  0  0
   -0.9044    5.1292    0.0000 H   0  0  0  0  0  0  0  0  0  0  0  0
    1.2185    3.3479    0.0000 H   0  0  0  0  0  0  0  0  0  0  0  0
   -2.4141    3.6257    0.0000 C   0  0  0  0  0  0  0  0  0  0  0  0
   -3.4426    4.8513    0.0000 H   0  0  0  0  0  0  0  0  0  0  0  0
   -3.9897    3.3479    0.0000 H   0  0  0  0  0  0  0  0  0  0  0  0
   -1.8669    5.1292    0.0000 H   0  0  0  0  0  0  0  0  0  0  0  0
   -2.7713    1.6000    0.0000 O   0  0  0  0  0  0  0  0  0  0  0  0
   -2.7713    0.0000    0.0000 Si  0  0  0  0  0  0  0  0  0  0  0  0
   -4.3470    0.2779    0.0000 C   0  0  0  0  0  0  0  0  0  0  0  0
   -5.9227    0.5557    0.0000 H   0  0  0  0  0  0  0  0  0  0  0  0
   -5.3755   -0.9479    0.0000 H   0  0  0  0  0  0  0  0  0  0  0  0
   -4.8942    1.7813    0.0000 H   0  0  0  0  0  0  0  0  0  0  0  0
   -3.3185   -1.5036    0.0000 C   0  0  0  0  0  0  0  0  0  0  0  0
   -3.8657   -3.0070    0.0000 H   0  0  0  0  0  0  0  0  0  0  0  0
   -2.2900   -2.7292    0.0000 H   0  0  0  0  0  0  0  0  0  0  0  0
   -4.8942   -1.7814    0.0000 H   0  0  0  0  0  0  0  0  0  0  0  0
   -1.3856   -0.8000    0.0000 O   0  0  0  0  0  0  0  0  0  0  0  0
    0.0000    0.0000    0.0000 Si  0  0  0  0  0  0  0  0  0  0  0  0
    0.5472   -1.5036    0.0000 C   0  0  0  0  0  0  0  0  0  0  0  0
    1.0944   -3.0070    0.0000 H   0  0  0  0  0  0  0  0  0  0  0  0
    2.1229   -1.7814    0.0000 H   0  0  0  0  0  0  0  0  0  0  0  0
   -0.4813   -2.7292    0.0000 H   0  0  0  0  0  0  0  0  0  0  0  0
    1.5757    0.2779    0.0000 C   0  0  0  0  0  0  0  0  0  0  0  0
    3.1514    0.5557    0.0000 H   0  0  0  0  0  0  0  0  0  0  0  0
    2.1229    1.7813    0.0000 H   0  0  0  0  0  0  0  0  0  0  0  0
    2.6042   -0.9479    0.0000 H   0  0  0  0  0  0  0  0  0  0  0  0
  1  2  1  0  0  0  0
  2  3  1  0  0  0  0
  3  4  1  0  0  0  0
  3  5  1  0  0  0  0
  3  6  1  0  0  0  0
  2  7  1  0  0  0  0
  7  8  1  0  0  0  0
  7  9  1  0  0  0  0
  7 10  1  0  0  0  0
  2 11  1  0  0  0  0
 11 12  1  0  0  0  0
 12 13  1  0  0  0  0
 13 14  1  0  0  0  0
 13 15  1  0  0  0  0
 13 16  1  0  0  0  0
 12 17  1  0  0  0  0
 17 18  1  0  0  0  0
 17 19  1  0  0  0  0
 17 20  1  0  0  0  0
 12 21  1  0  0  0  0
 21 22  1  0  0  0  0
 22  1  1  0  0  0  0
 22 23  1  0  0  0  0
 23 24  1  0  0  0  0
 23 25  1  0  0  0  0
 23 26  1  0  0  0  0
 22 27  1  0  0  0  0
 27 28  1  0  0  0  0
 27 29  1  0  0  0  0
 27 30  1  0  0  0  0
M  END
> <ChemID>
101381

> <source_casrn>
541-05-9

> <CAS>
541-05-9

> <SMILES>
C[Si]1(C)O[Si](C)(C)O[Si](C)(C)O1

> <NAME>
HEXAMETHYLCYCLOTRISILOXANE

> <preferred_name>
Hexamethylcyclotrisiloxane

> <iupac>
2,2,4,4,6,6-hexamethyl-1,3,5,2,4,6-trioxatrisilinane

> <MPID>
25994

> <dsstox_substance_id>
DTXSID6027185

> <Canonical_QSARr>
C[Si]1(C)O[Si](C)(C)O[Si](C)(C)O1

> <InChI_Code_QSARr>
InChI=1S/C6H18O3Si3/c1-10(2)7-11(3,4)9-12(5,6)8-10/h1-6H3

> <InChI Key_QSARr>
HTDJPCNNEPUOOQ-UHFFFAOYSA-N

> <Salt_Solvent>
?

> <LogVP>
0.5477

$$$$
101385
  -INDIGO-08031723152D

 15 14  0  0  0  0  0  0  0  0999 V2000
   -1.3857    0.8000    0.0000 C   0  0  0  0  0  0  0  0  0  0  0  0
   -0.7733    2.2782    0.0000 H   0  0  0  0  0  0  0  0  0  0  0  0
   -1.9979    2.2782    0.0000 H   0  0  0  0  0  0  0  0  0  0  0  0
   -2.7713    0.0000    0.0000 C   0  0  0  0  0  0  0  0  0  0  0  0
   -2.7713   -1.6000    0.0000 O   0  0  0  0  0  0  0  0  0  0  0  0
   -4.1569    0.8000    0.0000 N   0  0  0  0  0  0  0  0  0  0  0  0
   -5.5426    0.0000    0.0000 H   0  0  0  0  0  0  0  0  0  0  0  0
   -4.1569    2.4000    0.0000 H   0  0  0  0  0  0  0  0  0  0  0  0
    0.0000    0.0000    0.0000 C   0  0  0  0  0  0  0  0  0  0  0  0
   -0.6122   -1.4782    0.0000 H   0  0  0  0  0  0  0  0  0  0  0  0
    0.6122   -1.4782    0.0000 H   0  0  0  0  0  0  0  0  0  0  0  0
    1.3856    0.8000    0.0000 C   0  0  0  0  0  0  0  0  0  0  0  0
    2.7713    1.6000    0.0000 H   0  0  0  0  0  0  0  0  0  0  0  0
    2.7713    0.0000    0.0000 H   0  0  0  0  0  0  0  0  0  0  0  0
    1.3856    2.4000    0.0000 H   0  0  0  0  0  0  0  0  0  0  0  0
  1  2  1  0  0  0  0
  1  3  1  0  0  0  0
  1  4  1  0  0  0  0
  4  5  2  0  0  0  0
  4  6  1  0  0  0  0
  6  7  1  0  0  0  0
  6  8  1  0  0  0  0
  1  9  1  0  0  0  0
  9 10  1  0  0  0  0
  9 11  1  0  0  0  0
  9 12  1  0  0  0  0
 12 13  1  0  0  0  0
 12 14  1  0  0  0  0
 12 15  1  0  0  0  0
M  END
> <ChemID>
101385

> <source_casrn>
541-35-5

> <CAS>
541-35-5

> <SMILES>
CCCC(N)=O

> <NAME>
BUTYRAMIDE

> <preferred_name>
Butanamide

> <iupac>
Butanamide

> <MPID>
25998

> <dsstox_substance_id>
DTXSID8060248

> <Canonical_QSARr>
CCCC(N)=O

> <InChI_Code_QSARr>
InChI=1S/C4H9NO/c1-2-3-4(5)6/h2-3H2,1H3,(H2,5,6)

> <InChI Key_QSARr>
DNSISZSEWVHGLH-UHFFFAOYSA-N

> <Salt_Solvent>
?

> <LogVP>
-2.4078

$$$$
101389
  -INDIGO-08031723152D

 13 12  0  0  0  0  0  0  0  0999 V2000
    1.3856   -0.8000    0.0000 C   0  0  0  0  0  0  0  0  0  0  0  0
    1.3856   -2.4000    0.0000 O   0  0  0  0  0  0  0  0  0  0  0  0
    2.7712    0.0000    0.0000 O   0  0  0  0  0  0  0  0  0  0  0  0
    4.1569   -0.8000    0.0000 C   0  0  0  0  0  0  0  0  0  0  0  0
    4.1569   -2.4000    0.0000 O   0  0  0  0  0  0  0  0  0  0  0  0
    5.5425    0.0000    0.0000 C   0  0  0  0  0  0  0  0  0  0  0  0
    6.9282    0.8000    0.0000 H   0  0  0  0  0  0  0  0  0  0  0  0
    6.9282   -0.8000    0.0000 H   0  0  0  0  0  0  0  0  0  0  0  0
    5.5425    1.6000    0.0000 Cl  0  0  0  0  0  0  0  0  0  0  0  0
   -0.0001    0.0000    0.0000 C   0  0  0  0  0  0  0  0  0  0  0  0
   -1.3856    0.8000    0.0000 H   0  0  0  0  0  0  0  0  0  0  0  0
   -0.0001    1.6000    0.0000 H   0  0  0  0  0  0  0  0  0  0  0  0
   -1.3856   -0.8000    0.0000 Cl  0  0  0  0  0  0  0  0  0  0  0  0
  1  2  2  0  0  0  0
  1  3  1  0  0  0  0
  3  4  1  0  0  0  0
  4  5  2  0  0  0  0
  4  6  1  0  0  0  0
  6  7  1  0  0  0  0
  6  8  1  0  0  0  0
  6  9  1  0  0  0  0
  1 10  1  0  0  0  0
 10 11  1  0  0  0  0
 10 12  1  0  0  0  0
 10 13  1  0  0  0  0
M  END
> <ChemID>
101389

> <source_casrn>
541-88-8

> <CAS>
NOCAS_870600

> <SMILES>
O=C(CCl)OC(=O)CCl

> <NAME>
CHLOROACETIC ANHYDRIDE

> <preferred_name>


> <iupac>


> <MPID>
26002

> <dsstox_substance_id>
DTXSID60870600

> <Canonical_QSARr>
O=C(CCl)OC(=O)CCl

> <InChI_Code_QSARr>
InChI=1S/C4H4Cl2O3/c5-1-3(7)9-4(8)2-6/h1-2H2

> <InChI Key_QSARr>
PNVPNXKRAUBJGW-UHFFFAOYSA-N

> <Salt_Solvent>
?

> <LogVP>
-1.4296

$$$$
101394
  -INDIGO-08031723152D

 10  9  0  0  0  0  0  0  0  0999 V2000
   -0.8000    1.3856    0.0000 N   0  0  0  0  0  0  0  0  0  0  0  0
   -0.0000    0.0000    0.0000 C   0  0  0  0  0  0  0  0  0  0  0  0
   -0.2089   -1.5863    0.0000 H   0  0  0  0  0  0  0  0  0  0  0  0
   -1.2694   -0.9740    0.0000 H   0  0  0  0  0  0  0  0  0  0  0  0
    1.6000    0.0000    0.0000 C   0  0  0  0  0  0  0  0  0  0  0  0
    3.2000    0.0000    0.0000 H   0  0  0  0  0  0  0  0  0  0  0  0
    2.4000   -1.3856    0.0000 H   0  0  0  0  0  0  0  0  0  0  0  0
    2.4000    1.3856    0.0000 H   0  0  0  0  0  0  0  0  0  0  0  0
   -2.4000    1.3856    0.0000 C   0  0  0  0  0  0  0  0  0  0  0  0
   -4.0000    1.3856    0.0000 S   0  0  0  0  0  0  0  0  0  0  0  0
  1  2  1  0  0  0  0
  2  3  1  0  0  0  0
  2  4  1  0  0  0  0
  2  5  1  0  0  0  0
  5  6  1  0  0  0  0
  5  7  1  0  0  0  0
  5  8  1  0  0  0  0
  1  9  2  0  0  0  0
  9 10  2  0  0  0  0
M  END
> <ChemID>
101394

> <source_casrn>
542-85-8

> <CAS>
542-85-8

> <SMILES>
CCN=C=S

> <NAME>
ETHYL ISOTHIOCYANATE

> <preferred_name>
Ethane, isothiocyanato-

> <iupac>
Isothiocyanatoethane

> <MPID>
26006

> <dsstox_substance_id>
DTXSID2060258

> <Canonical_QSARr>
CCN=C=S

> <InChI_Code_QSARr>
InChI=1S/C3H5NS/c1-2-4-3-5/h2H2,1H3

> <InChI Key_QSARr>
HBNYJWAFDZLWRS-UHFFFAOYSA-N

> <Salt_Solvent>
?

> <LogVP>
1.0576

$$$$
101398
  -INDIGO-08031723152D

 17 16  0  0  0  0  0  0  0  0999 V2000
   -4.8000    0.0000    0.0000 Cl  0  0  0  0  0  0  0  0  0  0  0  0
   -3.9999    1.3856    0.0000 C   0  0  0  0  0  0  0  0  0  0  0  0
   -2.3999    1.3856    0.0000 O   0  0  0  0  0  0  0  0  0  0  0  0
   -1.6000    0.0000    0.0000 C   0  0  0  0  0  0  0  0  0  0  0  0
   -1.8089   -1.5863    0.0000 H   0  0  0  0  0  0  0  0  0  0  0  0
   -2.8693   -0.9740    0.0000 H   0  0  0  0  0  0  0  0  0  0  0  0
    0.0000    0.0000    0.0000 C   0  0  0  0  0  0  0  0  0  0  0  0
    0.0000   -1.6000    0.0000 H   0  0  0  0  0  0  0  0  0  0  0  0
    1.6000    0.0000    0.0000 C   0  0  0  0  0  0  0  0  0  0  0  0
    3.2000    0.0000    0.0000 H   0  0  0  0  0  0  0  0  0  0  0  0
    2.4001   -1.3856    0.0000 H   0  0  0  0  0  0  0  0  0  0  0  0
    2.4001    1.3856    0.0000 H   0  0  0  0  0  0  0  0  0  0  0  0
    0.0000    1.6000    0.0000 C   0  0  0  0  0  0  0  0  0  0  0  0
    0.0000    3.2000    0.0000 H   0  0  0  0  0  0  0  0  0  0  0  0
   -1.3856    2.4000    0.0000 H   0  0  0  0  0  0  0  0  0  0  0  0
    1.3856    2.4000    0.0000 H   0  0  0  0  0  0  0  0  0  0  0  0
   -4.8000    2.7713    0.0000 O   0  0  0  0  0  0  0  0  0  0  0  0
  1  2  1  0  0  0  0
  2  3  1  0  0  0  0
  3  4  1  0  0  0  0
  4  5  1  0  0  0  0
  4  6  1  0  0  0  0
  4  7  1  0  0  0  0
  7  8  1  0  0  0  0
  7  9  1  0  0  0  0
  9 10  1  0  0  0  0
  9 11  1  0  0  0  0
  9 12  1  0  0  0  0
  7 13  1  0  0  0  0
 13 14  1  0  0  0  0
 13 15  1  0  0  0  0
 13 16  1  0  0  0  0
  2 17  2  0  0  0  0
M  END
> <ChemID>
101398

> <source_casrn>
543-27-1

> <CAS>
543-27-1

> <SMILES>
CC(C)COC(=O)Cl

> <NAME>
Carbonochloridic acid, 2-methylpropyl ester

> <preferred_name>
Isobutyl chloroformate

> <iupac>
isobutyl carbonochloridate

> <MPID>
26010

> <dsstox_substance_id>
DTXSID8052194

> <Canonical_QSARr>
CC(C)COC(=O)Cl

> <InChI_Code_QSARr>
InChI=1S/C5H9ClO2/c1-4(2)3-8-5(6)7/h4H,3H2,1-2H3

> <InChI Key_QSARr>
YOETUEMZNOLGDB-UHFFFAOYSA-N

> <Salt_Solvent>
?

> <LogVP>
0.9217

$$$$
101402
  -INDIGO-08031723152D

 33 32  0  0  0  0  0  0  0  0999 V2000
   -0.0001   -0.0000    0.0000 C   0  0  0  0  0  0  0  0  0  0  0  0
    0.7999   -1.3857    0.0000 H   0  0  0  0  0  0  0  0  0  0  0  0
    1.5036    0.5473    0.0000 C   0  0  0  0  0  0  0  0  0  0  0  0
    1.1573    2.1093    0.0000 H   0  0  0  0  0  0  0  0  0  0  0  0
    2.3633    1.8967    0.0000 H   0  0  0  0  0  0  0  0  0  0  0  0
    2.7292   -0.4812    0.0000 C   0  0  0  0  0  0  0  0  0  0  0  0
    3.0755   -2.0433    0.0000 H   0  0  0  0  0  0  0  0  0  0  0  0
    1.8695   -1.8307    0.0000 H   0  0  0  0  0  0  0  0  0  0  0  0
    4.2326    0.0660    0.0000 O   0  0  0  0  0  0  0  0  0  0  0  0
    5.4584   -0.9625    0.0000 C   0  0  0  0  0  0  0  0  0  0  0  0
    5.8047   -2.5245    0.0000 H   0  0  0  0  0  0  0  0  0  0  0  0
    4.5987   -2.3119    0.0000 H   0  0  0  0  0  0  0  0  0  0  0  0
    6.9618   -0.4152    0.0000 C   0  0  0  0  0  0  0  0  0  0  0  0
    6.6156    1.1469    0.0000 H   0  0  0  0  0  0  0  0  0  0  0  0
    7.8215    0.9342    0.0000 H   0  0  0  0  0  0  0  0  0  0  0  0
    8.1875   -1.4437    0.0000 C   0  0  0  0  0  0  0  0  0  0  0  0
    6.9618   -2.4722    0.0000 H   0  0  0  0  0  0  0  0  0  0  0  0
    9.2159   -2.6694    0.0000 C   0  0  0  0  0  0  0  0  0  0  0  0
   10.2444   -3.8950    0.0000 H   0  0  0  0  0  0  0  0  0  0  0  0
   10.7916   -2.3916    0.0000 H   0  0  0  0  0  0  0  0  0  0  0  0
    8.6687   -4.1729    0.0000 H   0  0  0  0  0  0  0  0  0  0  0  0
    9.4133   -0.4152    0.0000 C   0  0  0  0  0  0  0  0  0  0  0  0
   10.6389    0.6133    0.0000 H   0  0  0  0  0  0  0  0  0  0  0  0
    9.1353    1.1605    0.0000 H   0  0  0  0  0  0  0  0  0  0  0  0
   10.9167   -0.9625    0.0000 H   0  0  0  0  0  0  0  0  0  0  0  0
   -1.3857   -0.8000    0.0000 C   0  0  0  0  0  0  0  0  0  0  0  0
   -2.7713   -1.6000    0.0000 H   0  0  0  0  0  0  0  0  0  0  0  0
   -1.3857   -2.4000    0.0000 H   0  0  0  0  0  0  0  0  0  0  0  0
   -2.7713   -0.0000    0.0000 H   0  0  0  0  0  0  0  0  0  0  0  0
   -0.8000    1.3856    0.0000 C   0  0  0  0  0  0  0  0  0  0  0  0
   -1.6000    2.7713    0.0000 H   0  0  0  0  0  0  0  0  0  0  0  0
   -0.0001    2.7713    0.0000 H   0  0  0  0  0  0  0  0  0  0  0  0
   -2.3999    1.3856    0.0000 H   0  0  0  0  0  0  0  0  0  0  0  0
  1  2  1  0  0  0  0
  1  3  1  0  0  0  0
  3  4  1  0  0  0  0
  3  5  1  0  0  0  0
  3  6  1  0  0  0  0
  6  7  1  0  0  0  0
  6  8  1  0  0  0  0
  6  9  1  0  0  0  0
  9 10  1  0  0  0  0
 10 11  1  0  0  0  0
 10 12  1  0  0  0  0
 10 13  1  0  0  0  0
 13 14  1  0  0  0  0
 13 15  1  0  0  0  0
 13 16  1  0  0  0  0
 16 17  1  0  0  0  0
 16 18  1  0  0  0  0
 18 19  1  0  0  0  0
 18 20  1  0  0  0  0
 18 21  1  0  0  0  0
 16 22  1  0  0  0  0
 22 23  1  0  0  0  0
 22 24  1  0  0  0  0
 22 25  1  0  0  0  0
  1 26  1  0  0  0  0
 26 27  1  0  0  0  0
 26 28  1  0  0  0  0
 26 29  1  0  0  0  0
  1 30  1  0  0  0  0
 30 31  1  0  0  0  0
 30 32  1  0  0  0  0
 30 33  1  0  0  0  0
M  END
> <ChemID>
101402

> <source_casrn>
544-01-4

> <CAS>
544-01-4

> <SMILES>
CC(C)CCOCCC(C)C

> <NAME>
DIISOPENTYL ETHER

> <preferred_name>
Isoamyl ether

> <iupac>
bis(3-methylbutyl) ether

> <MPID>
26014

> <dsstox_substance_id>
DTXSID8052198

> <Canonical_QSARr>
CC(C)CCOCCC(C)C

> <InChI_Code_QSARr>
InChI=1S/C10H22O/c1-9(2)5-7-11-8-6-10(3)4/h9-10H,5-8H2,1-4H3

> <InChI Key_QSARr>
AQZGPSLYZOOYQP-UHFFFAOYSA-N

> <Salt_Solvent>
?

> <LogVP>
0.1461

$$$$
101406
  -INDIGO-08031723152D

 15 15  0  0  0  0  0  0  0  0999 V2000
    0.0001    0.0000    0.0000 C   0  0  0  0  0  0  0  0  0  0  0  0
    0.9014    1.3220    0.0000 H   0  0  0  0  0  0  0  0  0  0  0  0
   -1.0882    1.1729    0.0000 H   0  0  0  0  0  0  0  0  0  0  0  0
    1.4894   -0.5846    0.0000 C   0  0  0  0  0  0  0  0  0  0  0  0
    2.6623    0.5037    0.0000 H   0  0  0  0  0  0  0  0  0  0  0  0
    1.9610   -2.1135    0.0000 C   0  0  0  0  0  0  0  0  0  0  0  0
    3.5431   -2.3519    0.0000 H   0  0  0  0  0  0  0  0  0  0  0  0
    1.0597   -3.4354    0.0000 C   0  0  0  0  0  0  0  0  0  0  0  0
    1.8597   -4.8211    0.0000 H   0  0  0  0  0  0  0  0  0  0  0  0
   -0.5359   -3.5550    0.0000 C   0  0  0  0  0  0  0  0  0  0  0  0
   -1.1204   -5.0444    0.0000 H   0  0  0  0  0  0  0  0  0  0  0  0
   -1.6242   -2.3822    0.0000 C   0  0  0  0  0  0  0  0  0  0  0  0
   -3.1530   -2.8537    0.0000 H   0  0  0  0  0  0  0  0  0  0  0  0
   -1.3857   -0.8000    0.0000 C   0  0  0  0  0  0  0  0  0  0  0  0
   -2.7076    0.1014    0.0000 H   0  0  0  0  0  0  0  0  0  0  0  0
  1  2  1  0  0  0  0
  1  3  1  0  0  0  0
  1  4  1  0  0  0  0
  4  5  1  0  0  0  0
  4  6  2  0  0  0  0
  6  7  1  0  0  0  0
  6  8  1  0  0  0  0
  8  9  1  0  0  0  0
  8 10  2  0  0  0  0
 10 11  1  0  0  0  0
 10 12  1  0  0  0  0
 12 13  1  0  0  0  0
 12 14  2  0  0  0  0
 14  1  1  0  0  0  0
 14 15  1  0  0  0  0
M  END
> <ChemID>
101406

> <source_casrn>
544-25-2

> <CAS>
544-25-2

> <SMILES>
C1C=CC=CC=C1

> <NAME>
CYCLOHEPTATRIENE

> <preferred_name>
1,3,5-Cycloheptatriene

> <iupac>
cyclohepta-1,3,5-triene

> <MPID>
26018

> <dsstox_substance_id>
DTXSID5073909

> <Canonical_QSARr>
C1C=CC=CC=C1

> <InChI_Code_QSARr>
InChI=1S/C7H8/c1-2-4-6-7-5-3-1/h1-6H,7H2

> <InChI Key_QSARr>
CHVJITGCYZJHLR-UHFFFAOYSA-N

> <Salt_Solvent>
?

> <LogVP>
1.3714

$$$$
101410
  -INDIGO-08031723152D

 50 49  0  0  0  0  0  0  0  0999 V2000
    9.6995   -0.8000    0.0000 C   0  0  0  0  0  0  0  0  0  0  0  0
   11.0851   -1.6000    0.0000 H   0  0  0  0  0  0  0  0  0  0  0  0
   11.0851    0.0000    0.0000 H   0  0  0  0  0  0  0  0  0  0  0  0
    9.6995   -2.4000    0.0000 H   0  0  0  0  0  0  0  0  0  0  0  0
    8.3138    0.0000    0.0000 C   0  0  0  0  0  0  0  0  0  0  0  0
    8.9260    1.4782    0.0000 H   0  0  0  0  0  0  0  0  0  0  0  0
    7.7017    1.4782    0.0000 H   0  0  0  0  0  0  0  0  0  0  0  0
    6.9282   -0.8000    0.0000 C   0  0  0  0  0  0  0  0  0  0  0  0
    6.3161   -2.2782    0.0000 H   0  0  0  0  0  0  0  0  0  0  0  0
    7.5403   -2.2782    0.0000 H   0  0  0  0  0  0  0  0  0  0  0  0
    5.5426    0.0000    0.0000 C   0  0  0  0  0  0  0  0  0  0  0  0
    6.1547    1.4782    0.0000 H   0  0  0  0  0  0  0  0  0  0  0  0
    4.9304    1.4782    0.0000 H   0  0  0  0  0  0  0  0  0  0  0  0
    4.1569   -0.8000    0.0000 C   0  0  0  0  0  0  0  0  0  0  0  0
    3.5448   -2.2782    0.0000 H   0  0  0  0  0  0  0  0  0  0  0  0
    4.7690   -2.2782    0.0000 H   0  0  0  0  0  0  0  0  0  0  0  0
    2.7713    0.0000    0.0000 C   0  0  0  0  0  0  0  0  0  0  0  0
    3.3834    1.4782    0.0000 H   0  0  0  0  0  0  0  0  0  0  0  0
    2.1592    1.4782    0.0000 H   0  0  0  0  0  0  0  0  0  0  0  0
    1.3856   -0.8000    0.0000 C   0  0  0  0  0  0  0  0  0  0  0  0
    0.7735   -2.2782    0.0000 H   0  0  0  0  0  0  0  0  0  0  0  0
    1.9978   -2.2782    0.0000 H   0  0  0  0  0  0  0  0  0  0  0  0
    0.0000    0.0000    0.0000 C   0  0  0  0  0  0  0  0  0  0  0  0
    0.6121    1.4782    0.0000 H   0  0  0  0  0  0  0  0  0  0  0  0
   -0.6121    1.4782    0.0000 H   0  0  0  0  0  0  0  0  0  0  0  0
   -1.3856   -0.8000    0.0000 C   0  0  0  0  0  0  0  0  0  0  0  0
   -1.9978   -2.2782    0.0000 H   0  0  0  0  0  0  0  0  0  0  0  0
   -0.7735   -2.2782    0.0000 H   0  0  0  0  0  0  0  0  0  0  0  0
   -2.7713    0.0000    0.0000 C   0  0  0  0  0  0  0  0  0  0  0  0
   -2.1592    1.4782    0.0000 H   0  0  0  0  0  0  0  0  0  0  0  0
   -3.3834    1.4782    0.0000 H   0  0  0  0  0  0  0  0  0  0  0  0
   -4.1569   -0.8000    0.0000 C   0  0  0  0  0  0  0  0  0  0  0  0
   -4.7690   -2.2782    0.0000 H   0  0  0  0  0  0  0  0  0  0  0  0
   -3.5448   -2.2782    0.0000 H   0  0  0  0  0  0  0  0  0  0  0  0
   -5.5426    0.0000    0.0000 C   0  0  0  0  0  0  0  0  0  0  0  0
   -4.9304    1.4782    0.0000 H   0  0  0  0  0  0  0  0  0  0  0  0
   -6.1547    1.4782    0.0000 H   0  0  0  0  0  0  0  0  0  0  0  0
   -6.9282   -0.8000    0.0000 C   0  0  0  0  0  0  0  0  0  0  0  0
   -7.5403   -2.2782    0.0000 H   0  0  0  0  0  0  0  0  0  0  0  0
   -6.3161   -2.2782    0.0000 H   0  0  0  0  0  0  0  0  0  0  0  0
   -8.3138    0.0000    0.0000 C   0  0  0  0  0  0  0  0  0  0  0  0
   -7.7017    1.4782    0.0000 H   0  0  0  0  0  0  0  0  0  0  0  0
   -8.9260    1.4782    0.0000 H   0  0  0  0  0  0  0  0  0  0  0  0
   -9.6995   -0.8000    0.0000 C   0  0  0  0  0  0  0  0  0  0  0  0
  -10.3116   -2.2782    0.0000 H   0  0  0  0  0  0  0  0  0  0  0  0
   -9.0874   -2.2782    0.0000 H   0  0  0  0  0  0  0  0  0  0  0  0
  -11.0851    0.0000    0.0000 C   0  0  0  0  0  0  0  0  0  0  0  0
  -12.4708    0.8000    0.0000 H   0  0  0  0  0  0  0  0  0  0  0  0
  -12.4708   -0.8000    0.0000 H   0  0  0  0  0  0  0  0  0  0  0  0
  -11.0851    1.6000    0.0000 I   0  0  0  0  0  0  0  0  0  0  0  0
  1  2  1  0  0  0  0
  1  3  1  0  0  0  0
  1  4  1  0  0  0  0
  1  5  1  0  0  0  0
  5  6  1  0  0  0  0
  5  7  1  0  0  0  0
  5  8  1  0  0  0  0
  8  9  1  0  0  0  0
  8 10  1  0  0  0  0
  8 11  1  0  0  0  0
 11 12  1  0  0  0  0
 11 13  1  0  0  0  0
 11 14  1  0  0  0  0
 14 15  1  0  0  0  0
 14 16  1  0  0  0  0
 14 17  1  0  0  0  0
 17 18  1  0  0  0  0
 17 19  1  0  0  0  0
 17 20  1  0  0  0  0
 20 21  1  0  0  0  0
 20 22  1  0  0  0  0
 20 23  1  0  0  0  0
 23 24  1  0  0  0  0
 23 25  1  0  0  0  0
 23 26  1  0  0  0  0
 26 27  1  0  0  0  0
 26 28  1  0  0  0  0
 26 29  1  0  0  0  0
 29 30  1  0  0  0  0
 29 31  1  0  0  0  0
 29 32  1  0  0  0  0
 32 33  1  0  0  0  0
 32 34  1  0  0  0  0
 32 35  1  0  0  0  0
 35 36  1  0  0  0  0
 35 37  1  0  0  0  0
 35 38  1  0  0  0  0
 38 39  1  0  0  0  0
 38 40  1  0  0  0  0
 38 41  1  0  0  0  0
 41 42  1  0  0  0  0
 41 43  1  0  0  0  0
 41 44  1  0  0  0  0
 44 45  1  0  0  0  0
 44 46  1  0  0  0  0
 44 47  1  0  0  0  0
 47 48  1  0  0  0  0
 47 49  1  0  0  0  0
 47 50  1  0  0  0  0
M  END
> <ChemID>
101410

> <source_casrn>
544-77-4

> <CAS>
544-77-4

> <SMILES>
CCCCCCCCCCCCCCCCI

> <NAME>
1-IODOHEXADECANE

> <preferred_name>
1-iodohexadecane

> <iupac>
1-iodohexadecane

> <MPID>
26022

> <dsstox_substance_id>
DTXSID0049317

> <Canonical_QSARr>
CCCCCCCCCCCCCCCCI

> <InChI_Code_QSARr>
InChI=1S/C16H33I/c1-2-3-4-5-6-7-8-9-10-11-12-13-14-15-16-17/h2-16H2,1H3

> <InChI Key_QSARr>
KMWHQYDMBYABKL-UHFFFAOYSA-N

> <Salt_Solvent>
?

> <LogVP>
-4.7828

$$$$
101415
  -INDIGO-08031723152D

 22 24  0  0  0  0  0  0  0  0999 V2000
    0.8000    4.1569    0.0000 O   0  0  0  0  0  0  0  0  0  0  0  0
    0.0000    2.7713    0.0000 C   0  0  0  0  0  0  0  0  0  0  0  0
    0.8000    1.3856    0.0000 C   0  0  0  0  0  0  0  0  0  0  0  0
    0.0000    0.0001    0.0000 C   0  0  0  0  0  0  0  0  0  0  0  0
    0.8000   -1.3856    0.0000 C   0  0  0  0  0  0  0  0  0  0  0  0
    2.4000   -1.3856    0.0000 C   0  0  0  0  0  0  0  0  0  0  0  0
    3.2001   -2.7713    0.0000 H   0  0  0  0  0  0  0  0  0  0  0  0
    3.2001   -0.0001    0.0000 C   0  0  0  0  0  0  0  0  0  0  0  0
    4.8000   -0.0001    0.0000 H   0  0  0  0  0  0  0  0  0  0  0  0
    2.4000    1.3856    0.0000 C   0  0  0  0  0  0  0  0  0  0  0  0
    3.2001    2.7712    0.0000 H   0  0  0  0  0  0  0  0  0  0  0  0
    0.0000   -2.7713    0.0000 C   0  0  0  0  0  0  0  0  0  0  0  0
    0.8000   -4.1569    0.0000 H   0  0  0  0  0  0  0  0  0  0  0  0
   -1.6000   -2.7712    0.0000 C   0  0  0  0  0  0  0  0  0  0  0  0
   -2.4001   -4.1569    0.0000 H   0  0  0  0  0  0  0  0  0  0  0  0
   -2.4001   -1.3856    0.0000 C   0  0  0  0  0  0  0  0  0  0  0  0
   -4.0000   -1.3856    0.0000 H   0  0  0  0  0  0  0  0  0  0  0  0
   -1.6000    0.0001    0.0000 C   0  0  0  0  0  0  0  0  0  0  0  0
   -2.4001    1.3856    0.0000 C   0  0  0  0  0  0  0  0  0  0  0  0
   -4.0000    1.3856    0.0000 H   0  0  0  0  0  0  0  0  0  0  0  0
   -1.6000    2.7713    0.0000 C   0  0  0  0  0  0  0  0  0  0  0  0
   -2.4001    4.1569    0.0000 H   0  0  0  0  0  0  0  0  0  0  0  0
  1  2  2  0  0  0  0
  2  3  1  0  0  0  0
  3  4  1  0  0  0  0
  4  5  1  0  0  0  0
  5  6  1  0  0  0  0
  6  7  1  0  0  0  0
  6  8  2  0  0  0  0
  8  9  1  0  0  0  0
  8 10  1  0  0  0  0
 10  3  2  0  0  0  0
 10 11  1  0  0  0  0
  5 12  2  0  0  0  0
 12 13  1  0  0  0  0
 12 14  1  0  0  0  0
 14 15  1  0  0  0  0
 14 16  2  0  0  0  0
 16 17  1  0  0  0  0
 16 18  1  0  0  0  0
 18  4  2  0  0  0  0
 18 19  1  0  0  0  0
 19 20  1  0  0  0  0
 19 21  2  0  0  0  0
 21  2  1  0  0  0  0
 21 22  1  0  0  0  0
M  END
> <ChemID>
101415

> <source_casrn>
548-39-0

> <CAS>
548-39-0

> <SMILES>
O=C1C=Cc2cccc3cccc1c23

> <NAME>
Perinaphthenone

> <preferred_name>
Phenalen-1-one

> <iupac>
Phenalen-1-one

> <MPID>
26026

> <dsstox_substance_id>
DTXSID20203278

> <Canonical_QSARr>
O=C1C=Cc2cccc3cccc1c23

> <InChI_Code_QSARr>
InChI=1S/C13H8O/c14-12-8-7-10-4-1-3-9-5-2-6-11(12)13(9)10/h1-8H

> <InChI Key_QSARr>
WWBGWPHHLRSTFI-UHFFFAOYSA-N

> <Salt_Solvent>
?

> <LogVP>
-5.1675

$$$$
101419
  -INDIGO-08031723152D

 16 16  0  0  0  0  0  0  0  0999 V2000
    0.0000   -0.0000    0.0000 C   0  0  0  0  0  0  0  0  0  0  0  0
    1.3856    0.8000    0.0000 C   0  0  0  0  0  0  0  0  0  0  0  0
    1.3856    2.4000    0.0000 H   0  0  0  0  0  0  0  0  0  0  0  0
    2.7713   -0.0000    0.0000 O   0  0  0  0  0  0  0  0  0  0  0  0
    0.0000   -1.6000    0.0000 C   0  0  0  0  0  0  0  0  0  0  0  0
    1.3856   -2.4000    0.0000 N   0  0  0  0  0  0  0  0  0  0  0  0
    1.3856   -4.0000    0.0000 O   0  0  0  0  0  0  0  0  0  0  0  0
    2.7713   -1.6000    0.0000 O   0  0  0  0  0  0  0  0  0  0  0  0
   -1.3856   -2.4000    0.0000 C   0  0  0  0  0  0  0  0  0  0  0  0
   -1.3856   -4.0000    0.0000 H   0  0  0  0  0  0  0  0  0  0  0  0
   -2.7713   -1.6000    0.0000 C   0  0  0  0  0  0  0  0  0  0  0  0
   -4.1569   -2.4000    0.0000 H   0  0  0  0  0  0  0  0  0  0  0  0
   -2.7713   -0.0000    0.0000 C   0  0  0  0  0  0  0  0  0  0  0  0
   -4.1569    0.8000    0.0000 H   0  0  0  0  0  0  0  0  0  0  0  0
   -1.3856    0.8000    0.0000 C   0  0  0  0  0  0  0  0  0  0  0  0
   -1.3856    2.4000    0.0000 H   0  0  0  0  0  0  0  0  0  0  0  0
  1  2  1  0  0  0  0
  2  3  1  0  0  0  0
  2  4  2  0  0  0  0
  1  5  1  0  0  0  0
  5  6  1  0  0  0  0
  6  7  1  0  0  0  0
  6  8  2  0  0  0  0
  5  9  2  0  0  0  0
  9 10  1  0  0  0  0
  9 11  1  0  0  0  0
 11 12  1  0  0  0  0
 11 13  2  0  0  0  0
 13 14  1  0  0  0  0
 13 15  1  0  0  0  0
 15  1  2  0  0  0  0
 15 16  1  0  0  0  0
M  CHG  2   6   1   7  -1
M  END
> <ChemID>
101419

> <source_casrn>
552-89-6

> <CAS>
552-89-6

> <SMILES>
[O-][N+](=O)c1ccccc1C=O

> <NAME>
O-NITROBENZALDEHYDE

> <preferred_name>
2-Nitrobenzaldehyde

> <iupac>
2-nitrobenzaldehyde

> <MPID>
26030

> <dsstox_substance_id>
DTXSID0022060

> <Canonical_QSARr>
[O-][N+](=O)c1ccccc1C=O

> <InChI_Code_QSARr>
InChI=1S/C7H5NO3/c9-5-6-3-1-2-4-7(6)8(10)11/h1-5H

> <InChI Key_QSARr>
CMWKITSNTDAEDT-UHFFFAOYSA-N

> <Salt_Solvent>
?

> <LogVP>
-1.7471

$$$$
101423
  -INDIGO-08031723152D

 12 12  0  0  0  0  0  0  0  0999 V2000
   -0.0001    0.0000    0.0000 C   0  0  0  0  0  0  0  0  0  0  0  0
    1.0706    1.1891    0.0000 C   0  0  0  0  0  0  0  0  0  0  0  0
    0.7380    2.7541    0.0000 H   0  0  0  0  0  0  0  0  0  0  0  0
    2.5323    0.5383    0.0000 C   0  0  0  0  0  0  0  0  0  0  0  0
    3.9179    1.3382    0.0000 H   0  0  0  0  0  0  0  0  0  0  0  0
    2.3650   -1.0530    0.0000 C   0  0  0  0  0  0  0  0  0  0  0  0
    3.5541   -2.1236    0.0000 H   0  0  0  0  0  0  0  0  0  0  0  0
    0.8000   -1.3856    0.0000 S   0  0  0  0  0  0  0  0  0  0  0  0
   -1.5912    0.1672    0.0000 C   0  0  0  0  0  0  0  0  0  0  0  0
   -3.1825    0.3345    0.0000 H   0  0  0  0  0  0  0  0  0  0  0  0
   -2.5316   -1.1272    0.0000 H   0  0  0  0  0  0  0  0  0  0  0  0
   -2.2420    1.6289    0.0000 H   0  0  0  0  0  0  0  0  0  0  0  0
  1  2  2  0  0  0  0
  2  3  1  0  0  0  0
  2  4  1  0  0  0  0
  4  5  1  0  0  0  0
  4  6  2  0  0  0  0
  6  7  1  0  0  0  0
  6  8  1  0  0  0  0
  8  1  1  0  0  0  0
  1  9  1  0  0  0  0
  9 10  1  0  0  0  0
  9 11  1  0  0  0  0
  9 12  1  0  0  0  0
M  END
> <ChemID>
101423

> <source_casrn>
554-14-3

> <CAS>
554-14-3

> <SMILES>
Cc1ccc[s]1

> <NAME>
2-METHYLTHIOPHENE

> <preferred_name>
Thiophene, 2-methyl-

> <iupac>
2-METHYLTHIOPHENE

> <MPID>
26034

> <dsstox_substance_id>
DTXSID3060291

> <Canonical_QSARr>
Cc1ccc[s]1

> <InChI_Code_QSARr>
InChI=1S/C5H6S/c1-5-3-2-4-6-5/h2-4H,1H3

> <InChI Key_QSARr>
XQQBUAPQHNYYRS-UHFFFAOYSA-N

> <Salt_Solvent>
?

> <LogVP>
1.396

$$$$
101427
  -INDIGO-08031723152D

  7  6  0  0  0  0  0  0  0  0999 V2000
   -0.0000    0.0000    0.0000 C   0  0  0  0  0  0  0  0  0  0  0  0
    1.3856    0.8000    0.0000 H   0  0  0  0  0  0  0  0  0  0  0  0
   -0.0000    1.6000    0.0000 H   0  0  0  0  0  0  0  0  0  0  0  0
    1.3856   -0.8000    0.0000 H   0  0  0  0  0  0  0  0  0  0  0  0
   -1.3856   -0.8000    0.0000 N   0  0  0  0  0  0  0  0  0  0  0  0
   -2.7713    0.0000    0.0000 C   0  0  0  0  0  0  0  0  0  0  0  0
   -4.1569    0.8000    0.0000 S   0  0  0  0  0  0  0  0  0  0  0  0
  1  2  1  0  0  0  0
  1  3  1  0  0  0  0
  1  4  1  0  0  0  0
  1  5  1  0  0  0  0
  5  6  2  0  0  0  0
  6  7  2  0  0  0  0
M  END
> <ChemID>
101427

> <source_casrn>
556-61-6

> <CAS>
556-61-6

> <SMILES>
CN=C=S

> <NAME>
METHYL ISOTHIOCYANATE

> <preferred_name>
Methyl isothiocyanate

> <iupac>
isothiocyanatomethane

> <MPID>
26038

> <dsstox_substance_id>
DTXSID2027204

> <Canonical_QSARr>
CN=C=S

> <InChI_Code_QSARr>
InChI=1S/C2H3NS/c1-3-2-4/h1H3

> <InChI Key_QSARr>
LGDSHSYDSCRFAB-UHFFFAOYSA-N

> <Salt_Solvent>
?

> <LogVP>
0.5492

$$$$
101431
  -INDIGO-08031723152D

 87 86  0  0  0  0  0  0  0  0999 V2000
   10.5510   -0.2443    0.0000 O   0  0  0  0  0  0  0  0  0  0  0  0
   12.0545   -0.7916    0.0000 Si  0  0  0  0  0  0  0  0  0  0  0  0
   13.5580   -1.3388    0.0000 O   0  0  0  0  0  0  0  0  0  0  0  0
   15.0615   -0.7916    0.0000 Si  0  0  0  0  0  0  0  0  0  0  0  0
   16.5650   -0.2443    0.0000 O   0  0  0  0  0  0  0  0  0  0  0  0
   18.0685   -0.7916    0.0000 Si  0  0  0  0  0  0  0  0  0  0  0  0
   19.5720   -1.3388    0.0000 O   0  0  0  0  0  0  0  0  0  0  0  0
   21.0755   -0.7916    0.0000 Si  0  0  0  0  0  0  0  0  0  0  0  0
   22.6755   -0.7916    0.0000 C   0  0  0  0  0  0  0  0  0  0  0  0
   24.2756   -0.7916    0.0000 H   0  0  0  0  0  0  0  0  0  0  0  0
   23.4758   -2.1772    0.0000 H   0  0  0  0  0  0  0  0  0  0  0  0
   23.4758    0.5941    0.0000 H   0  0  0  0  0  0  0  0  0  0  0  0
   21.3536   -2.3673    0.0000 C   0  0  0  0  0  0  0  0  0  0  0  0
   21.6314   -3.9430    0.0000 H   0  0  0  0  0  0  0  0  0  0  0  0
   22.8571   -2.9144    0.0000 H   0  0  0  0  0  0  0  0  0  0  0  0
   20.1279   -3.3957    0.0000 H   0  0  0  0  0  0  0  0  0  0  0  0
   20.7977    0.7842    0.0000 C   0  0  0  0  0  0  0  0  0  0  0  0
   22.0235    1.8126    0.0000 H   0  0  0  0  0  0  0  0  0  0  0  0
   22.3012    0.2369    0.0000 H   0  0  0  0  0  0  0  0  0  0  0  0
   19.5720   -0.2443    0.0000 H   0  0  0  0  0  0  0  0  0  0  0  0
   18.3466    0.7842    0.0000 C   0  0  0  0  0  0  0  0  0  0  0  0
   18.3466    2.3841    0.0000 H   0  0  0  0  0  0  0  0  0  0  0  0
   19.7321    1.5841    0.0000 H   0  0  0  0  0  0  0  0  0  0  0  0
   16.9608    1.5841    0.0000 H   0  0  0  0  0  0  0  0  0  0  0  0
   17.5212   -2.2951    0.0000 C   0  0  0  0  0  0  0  0  0  0  0  0
   18.5497   -3.5207    0.0000 H   0  0  0  0  0  0  0  0  0  0  0  0
   19.1213   -2.2951    0.0000 H   0  0  0  0  0  0  0  0  0  0  0  0
   16.2959   -1.2666    0.0000 H   0  0  0  0  0  0  0  0  0  0  0  0
   15.3392   -2.3673    0.0000 C   0  0  0  0  0  0  0  0  0  0  0  0
   15.3392   -3.9673    0.0000 H   0  0  0  0  0  0  0  0  0  0  0  0
   16.7251   -3.1672    0.0000 H   0  0  0  0  0  0  0  0  0  0  0  0
   13.9538   -3.1672    0.0000 H   0  0  0  0  0  0  0  0  0  0  0  0
   14.5142    0.7120    0.0000 C   0  0  0  0  0  0  0  0  0  0  0  0
   15.5427    1.9376    0.0000 H   0  0  0  0  0  0  0  0  0  0  0  0
   16.1143    0.7120    0.0000 H   0  0  0  0  0  0  0  0  0  0  0  0
   13.2889   -0.3165    0.0000 H   0  0  0  0  0  0  0  0  0  0  0  0
   12.3322    0.7842    0.0000 C   0  0  0  0  0  0  0  0  0  0  0  0
   12.3322    2.3841    0.0000 H   0  0  0  0  0  0  0  0  0  0  0  0
   13.7181    1.5841    0.0000 H   0  0  0  0  0  0  0  0  0  0  0  0
   10.9468    1.5841    0.0000 H   0  0  0  0  0  0  0  0  0  0  0  0
   11.5072   -2.2951    0.0000 C   0  0  0  0  0  0  0  0  0  0  0  0
   12.5357   -3.5207    0.0000 H   0  0  0  0  0  0  0  0  0  0  0  0
   13.1073   -2.2951    0.0000 H   0  0  0  0  0  0  0  0  0  0  0  0
   10.2815   -1.2666    0.0000 H   0  0  0  0  0  0  0  0  0  0  0  0
    9.0475   -0.7916    0.0000 Si  0  0  0  0  0  0  0  0  0  0  0  0
    7.5440   -1.3388    0.0000 O   0  0  0  0  0  0  0  0  0  0  0  0
    6.0405   -0.7916    0.0000 Si  0  0  0  0  0  0  0  0  0  0  0  0
    4.5370   -0.2443    0.0000 O   0  0  0  0  0  0  0  0  0  0  0  0
    2.9612   -0.5222    0.0000 Si  0  0  0  0  0  0  0  0  0  0  0  0
    1.3855   -0.8000    0.0000 O   0  0  0  0  0  0  0  0  0  0  0  0
    0.0001    0.0000    0.0000 Si  0  0  0  0  0  0  0  0  0  0  0  0
   -1.3858    0.8000    0.0000 C   0  0  0  0  0  0  0  0  0  0  0  0
   -2.7713    1.6000    0.0000 H   0  0  0  0  0  0  0  0  0  0  0  0
   -2.7713    0.0000    0.0000 H   0  0  0  0  0  0  0  0  0  0  0  0
   -1.6636    2.3757    0.0000 H   0  0  0  0  0  0  0  0  0  0  0  0
    0.7999    1.3856    0.0000 C   0  0  0  0  0  0  0  0  0  0  0  0
    1.8284    2.6113    0.0000 H   0  0  0  0  0  0  0  0  0  0  0  0
    0.2526    2.8891    0.0000 H   0  0  0  0  0  0  0  0  0  0  0  0
   -0.7758    1.6635    0.0000 H   0  0  0  0  0  0  0  0  0  0  0  0
   -0.8002   -1.3856    0.0000 C   0  0  0  0  0  0  0  0  0  0  0  0
   -1.6000   -2.7713    0.0000 H   0  0  0  0  0  0  0  0  0  0  0  0
    0.0001   -2.7713    0.0000 H   0  0  0  0  0  0  0  0  0  0  0  0
   -2.3998   -1.3856    0.0000 H   0  0  0  0  0  0  0  0  0  0  0  0
    2.9612   -2.1221    0.0000 C   0  0  0  0  0  0  0  0  0  0  0  0
    2.6835   -3.6978    0.0000 H   0  0  0  0  0  0  0  0  0  0  0  0
    1.4577   -2.6694    0.0000 H   0  0  0  0  0  0  0  0  0  0  0  0
    4.1870   -3.1506    0.0000 H   0  0  0  0  0  0  0  0  0  0  0  0
    2.6835    1.0536    0.0000 C   0  0  0  0  0  0  0  0  0  0  0  0
    3.9092    2.0820    0.0000 H   0  0  0  0  0  0  0  0  0  0  0  0
    4.2592    0.7757    0.0000 H   0  0  0  0  0  0  0  0  0  0  0  0
    1.2980    0.2535    0.0000 H   0  0  0  0  0  0  0  0  0  0  0  0
    6.3182    0.7842    0.0000 C   0  0  0  0  0  0  0  0  0  0  0  0
    6.3182    2.3841    0.0000 H   0  0  0  0  0  0  0  0  0  0  0  0
    4.9328    1.5841    0.0000 H   0  0  0  0  0  0  0  0  0  0  0  0
    7.7041    1.5841    0.0000 H   0  0  0  0  0  0  0  0  0  0  0  0
    5.4932   -2.2951    0.0000 C   0  0  0  0  0  0  0  0  0  0  0  0
    6.5217   -3.5207    0.0000 H   0  0  0  0  0  0  0  0  0  0  0  0
    7.0933   -2.2951    0.0000 H   0  0  0  0  0  0  0  0  0  0  0  0
    4.2675   -1.2666    0.0000 H   0  0  0  0  0  0  0  0  0  0  0  0
    9.3252   -2.3673    0.0000 C   0  0  0  0  0  0  0  0  0  0  0  0
    9.3252   -3.9673    0.0000 H   0  0  0  0  0  0  0  0  0  0  0  0
    7.9398   -3.1672    0.0000 H   0  0  0  0  0  0  0  0  0  0  0  0
   10.7111   -3.1672    0.0000 H   0  0  0  0  0  0  0  0  0  0  0  0
    8.5002    0.7120    0.0000 C   0  0  0  0  0  0  0  0  0  0  0  0
    9.5287    1.9376    0.0000 H   0  0  0  0  0  0  0  0  0  0  0  0
   10.1003    0.7120    0.0000 H   0  0  0  0  0  0  0  0  0  0  0  0
    7.2745   -0.3165    0.0000 H   0  0  0  0  0  0  0  0  0  0  0  0
  1  2  1  0  0  0  0
  2  3  1  0  0  0  0
  3  4  1  0  0  0  0
  4  5  1  0  0  0  0
  5  6  1  0  0  0  0
  6  7  1  0  0  0  0
  7  8  1  0  0  0  0
  8  9  1  0  0  0  0
  9 10  1  0  0  0  0
  9 11  1  0  0  0  0
  9 12  1  0  0  0  0
  8 13  1  0  0  0  0
 13 14  1  0  0  0  0
 13 15  1  0  0  0  0
 13 16  1  0  0  0  0
  8 17  1  0  0  0  0
 17 18  1  0  0  0  0
 17 19  1  0  0  0  0
 17 20  1  0  0  0  0
  6 21  1  0  0  0  0
 21 22  1  0  0  0  0
 21 23  1  0  0  0  0
 21 24  1  0  0  0  0
  6 25  1  0  0  0  0
 25 26  1  0  0  0  0
 25 27  1  0  0  0  0
 25 28  1  0  0  0  0
  4 29  1  0  0  0  0
 29 30  1  0  0  0  0
 29 31  1  0  0  0  0
 29 32  1  0  0  0  0
  4 33  1  0  0  0  0
 33 34  1  0  0  0  0
 33 35  1  0  0  0  0
 33 36  1  0  0  0  0
  2 37  1  0  0  0  0
 37 38  1  0  0  0  0
 37 39  1  0  0  0  0
 37 40  1  0  0  0  0
  2 41  1  0  0  0  0
 41 42  1  0  0  0  0
 41 43  1  0  0  0  0
 41 44  1  0  0  0  0
  1 45  1  0  0  0  0
 45 46  1  0  0  0  0
 46 47  1  0  0  0  0
 47 48  1  0  0  0  0
 48 49  1  0  0  0  0
 49 50  1  0  0  0  0
 50 51  1  0  0  0  0
 51 52  1  0  0  0  0
 52 53  1  0  0  0  0
 52 54  1  0  0  0  0
 52 55  1  0  0  0  0
 51 56  1  0  0  0  0
 56 57  1  0  0  0  0
 56 58  1  0  0  0  0
 56 59  1  0  0  0  0
 51 60  1  0  0  0  0
 60 61  1  0  0  0  0
 60 62  1  0  0  0  0
 60 63  1  0  0  0  0
 49 64  1  0  0  0  0
 64 65  1  0  0  0  0
 64 66  1  0  0  0  0
 64 67  1  0  0  0  0
 49 68  1  0  0  0  0
 68 69  1  0  0  0  0
 68 70  1  0  0  0  0
 68 71  1  0  0  0  0
 47 72  1  0  0  0  0
 72 73  1  0  0  0  0
 72 74  1  0  0  0  0
 72 75  1  0  0  0  0
 47 76  1  0  0  0  0
 76 77  1  0  0  0  0
 76 78  1  0  0  0  0
 76 79  1  0  0  0  0
 45 80  1  0  0  0  0
 80 81  1  0  0  0  0
 80 82  1  0  0  0  0
 80 83  1  0  0  0  0
 45 84  1  0  0  0  0
 84 85  1  0  0  0  0
 84 86  1  0  0  0  0
 84 87  1  0  0  0  0
M  END
> <ChemID>
101431

> <source_casrn>
556-69-4

> <CAS>
556-69-4

> <SMILES>
C[Si](C)(C)O[Si](C)(C)O[Si](C)(C)O[Si](C)(C)O[Si](C)(C)O[Si](C)(C)O[Si](C)(C)O[Si](C)(C)C

> <NAME>
OCTADECAMETHYLOCTASILOXANE

> <preferred_name>
Octasiloxane, octadecamethyl-

> <iupac>
[(dimethyl-trimethylsilyloxysilyl)oxy-dimethylsilyl]oxy-[[(dimethyl-trimethylsilyloxysilyl)oxy-dimethylsilyl]oxy-dimethylsilyl]oxy-dimethylsilane

> <MPID>
26042

> <dsstox_substance_id>
DTXSID5060306

> <Canonical_QSARr>
C[Si](C)(C)O[Si](C)(C)O[Si](C)(C)O[Si](C)(C)O[Si](C)(C)O[Si](C)(C)O[Si](C)(C)O[Si](C)(C)C

> <InChI_Code_QSARr>
InChI=1S/C18H54O7Si8/c1-26(2,3)19-28(7,8)21-30(11,12)23-32(15,16)25-33(17,18)24-31(13,14)22-29(9,10)20-27(4,5)6/h1-18H3

> <InChI Key_QSARr>
VWGDPBQTSZDFMX-UHFFFAOYSA-N

> <Salt_Solvent>
?

> <LogVP>
-2.4962

$$$$
101436
  -INDIGO-08031723152D

 16 15  0  0  0  0  0  0  0  0999 V2000
   -2.7713    0.0000    0.0000 C   0  0  0  0  0  0  0  0  0  0  0  0
   -2.1590   -1.4782    0.0000 H   0  0  0  0  0  0  0  0  0  0  0  0
   -3.3836   -1.4782    0.0000 H   0  0  0  0  0  0  0  0  0  0  0  0
   -1.3856    0.8000    0.0000 O   0  0  0  0  0  0  0  0  0  0  0  0
    0.0000    0.0000    0.0000 C   0  0  0  0  0  0  0  0  0  0  0  0
    0.6123   -1.4782    0.0000 H   0  0  0  0  0  0  0  0  0  0  0  0
   -0.6123   -1.4782    0.0000 H   0  0  0  0  0  0  0  0  0  0  0  0
    1.3857    0.8000    0.0000 C   0  0  0  0  0  0  0  0  0  0  0  0
    2.7713    1.6000    0.0000 H   0  0  0  0  0  0  0  0  0  0  0  0
    2.7713    0.0000    0.0000 H   0  0  0  0  0  0  0  0  0  0  0  0
    1.3857    2.4000    0.0000 H   0  0  0  0  0  0  0  0  0  0  0  0
   -4.1570    0.8000    0.0000 C   0  0  0  0  0  0  0  0  0  0  0  0
   -4.1570    2.4000    0.0000 H   0  0  0  0  0  0  0  0  0  0  0  0
   -5.5426    0.0000    0.0000 C   0  0  0  0  0  0  0  0  0  0  0  0
   -6.9282    0.8000    0.0000 H   0  0  0  0  0  0  0  0  0  0  0  0
   -5.5426   -1.6000    0.0000 H   0  0  0  0  0  0  0  0  0  0  0  0
  1  2  1  0  0  0  0
  1  3  1  0  0  0  0
  1  4  1  0  0  0  0
  4  5  1  0  0  0  0
  5  6  1  0  0  0  0
  5  7  1  0  0  0  0
  5  8  1  0  0  0  0
  8  9  1  0  0  0  0
  8 10  1  0  0  0  0
  8 11  1  0  0  0  0
  1 12  1  0  0  0  0
 12 13  1  0  0  0  0
 12 14  2  0  0  0  0
 14 15  1  0  0  0  0
 14 16  1  0  0  0  0
M  END
> <ChemID>
101436

> <source_casrn>
557-31-3

> <CAS>
557-31-3

> <SMILES>
CCOCC=C

> <NAME>
ALLYL ETHYL ETHER

> <preferred_name>
1-Propene, 3-ethoxy-

> <iupac>
3-ethoxyprop-1-ene

> <MPID>
26046

> <dsstox_substance_id>
DTXSID4060319

> <Canonical_QSARr>
CCOCC=C

> <InChI_Code_QSARr>
InChI=1S/C5H10O/c1-3-5-6-4-2/h3H,1,4-5H2,2H3

> <InChI Key_QSARr>
OJPSFJLSZZTSDF-UHFFFAOYSA-N

> <Salt_Solvent>
?

> <LogVP>
2.1847

$$$$
101440
  -INDIGO-08031723152D

  5  4  0  0  0  0  0  0  0  0999 V2000
    0.0000    0.0000    0.0000 C   0  0  0  0  0  0  0  0  0  0  0  0
    0.8000    1.3856    0.0000 Br  0  0  0  0  0  0  0  0  0  0  0  0
   -1.3856    0.8000    0.0000 Br  0  0  0  0  0  0  0  0  0  0  0  0
    1.3856   -0.8000    0.0000 Br  0  0  0  0  0  0  0  0  0  0  0  0
   -0.8000   -1.3856    0.0000 Br  0  0  0  0  0  0  0  0  0  0  0  0
  1  2  1  0  0  0  0
  1  3  1  0  0  0  0
  1  4  1  0  0  0  0
  1  5  1  0  0  0  0
M  END
> <ChemID>
101440

> <source_casrn>
558-13-4

> <CAS>
558-13-4

> <SMILES>
BrC(Br)(Br)Br

> <NAME>
CARBON TETRABROMIDE

> <preferred_name>
Carbon tetrabromide

> <iupac>
Tetrabromomethane

> <MPID>
26050

> <dsstox_substance_id>
DTXSID8060327

> <Canonical_QSARr>
BrC(Br)(Br)Br

> <InChI_Code_QSARr>
InChI=1S/CBr4/c2-1(3,4)5

> <InChI Key_QSARr>
HJUGFYREWKUQJT-UHFFFAOYSA-N

> <Salt_Solvent>
?

> <LogVP>
-0.5686

$$$$
101444
  -INDIGO-08031723152D

 24 23  0  0  0  0  0  0  0  0999 V2000
    0.0000    0.0000    0.0000 C   0  0  0  0  0  0  0  0  0  0  0  0
    1.6000    0.0000    0.0000 C   0  0  0  0  0  0  0  0  0  0  0  0
    2.8693    0.9740    0.0000 H   0  0  0  0  0  0  0  0  0  0  0  0
    1.8088    1.5863    0.0000 H   0  0  0  0  0  0  0  0  0  0  0  0
    2.4000   -1.3856    0.0000 C   0  0  0  0  0  0  0  0  0  0  0  0
    4.0000   -1.3856    0.0000 H   0  0  0  0  0  0  0  0  0  0  0  0
    3.2001   -2.7713    0.0000 H   0  0  0  0  0  0  0  0  0  0  0  0
    3.2001    0.0000    0.0000 H   0  0  0  0  0  0  0  0  0  0  0  0
   -1.6000   -0.0000    0.0000 C   0  0  0  0  0  0  0  0  0  0  0  0
   -2.4000   -1.3856    0.0000 C   0  0  0  0  0  0  0  0  0  0  0  0
   -4.0000   -1.3856    0.0000 H   0  0  0  0  0  0  0  0  0  0  0  0
   -3.2000   -2.7713    0.0000 H   0  0  0  0  0  0  0  0  0  0  0  0
   -3.2000   -0.0000    0.0000 H   0  0  0  0  0  0  0  0  0  0  0  0
   -2.6284    1.2257    0.0000 C   0  0  0  0  0  0  0  0  0  0  0  0
   -4.2042    0.9478    0.0000 H   0  0  0  0  0  0  0  0  0  0  0  0
   -2.3506    2.8014    0.0000 H   0  0  0  0  0  0  0  0  0  0  0  0
    0.0000    1.6000    0.0000 C   0  0  0  0  0  0  0  0  0  0  0  0
    0.0000    3.2000    0.0000 H   0  0  0  0  0  0  0  0  0  0  0  0
   -1.3857    2.4000    0.0000 H   0  0  0  0  0  0  0  0  0  0  0  0
    1.2257    2.6285    0.0000 H   0  0  0  0  0  0  0  0  0  0  0  0
    0.0000   -1.6000    0.0000 C   0  0  0  0  0  0  0  0  0  0  0  0
    0.0000   -3.2000    0.0000 H   0  0  0  0  0  0  0  0  0  0  0  0
    1.3856   -2.4000    0.0000 H   0  0  0  0  0  0  0  0  0  0  0  0
   -1.3857   -2.4000    0.0000 H   0  0  0  0  0  0  0  0  0  0  0  0
  1  2  1  0  0  0  0
  2  3  1  0  0  0  0
  2  4  1  0  0  0  0
  2  5  1  0  0  0  0
  5  6  1  0  0  0  0
  5  7  1  0  0  0  0
  5  8  1  0  0  0  0
  1  9  1  0  0  0  0
  9 10  1  0  0  0  0
 10 11  1  0  0  0  0
 10 12  1  0  0  0  0
 10 13  1  0  0  0  0
  9 14  2  0  0  0  0
 14 15  1  0  0  0  0
 14 16  1  0  0  0  0
  1 17  1  0  0  0  0
 17 18  1  0  0  0  0
 17 19  1  0  0  0  0
 17 20  1  0  0  0  0
  1 21  1  0  0  0  0
 21 22  1  0  0  0  0
 21 23  1  0  0  0  0
 21 24  1  0  0  0  0
M  END
> <ChemID>
101444

> <source_casrn>
560-23-6

> <CAS>
560-23-6

> <SMILES>
CCC(C)(C)C(C)=C

> <NAME>
2,3,3-TRIMETHYL-1-PENTENE

> <preferred_name>
2,3,3-Trimethyl-1-pentene

> <iupac>
2,3,3-trimethylpent-1-ene

> <MPID>
26054

> <dsstox_substance_id>
DTXSID90204570

> <Canonical_QSARr>
CCC(C)(C)C(C)=C

> <InChI_Code_QSARr>
InChI=1S/C8H16/c1-6-8(4,5)7(2)3/h2,6H2,1,3-5H3

> <InChI Key_QSARr>
TUSBCMPNIOJUBX-UHFFFAOYSA-N

> <Salt_Solvent>
?

> <LogVP>
1.4801

$$$$
101448
  -INDIGO-08031723152D

 26 25  0  0  0  0  0  0  0  0999 V2000
   -0.0000    0.0000    0.0000 C   0  0  0  0  0  0  0  0  0  0  0  0
    1.6000    0.0000    0.0000 C   0  0  0  0  0  0  0  0  0  0  0  0
    2.8694   -0.9740    0.0000 H   0  0  0  0  0  0  0  0  0  0  0  0
    1.8089   -1.5863    0.0000 H   0  0  0  0  0  0  0  0  0  0  0  0
    2.9856    0.8000    0.0000 C   0  0  0  0  0  0  0  0  0  0  0  0
    2.3733    2.2782    0.0000 H   0  0  0  0  0  0  0  0  0  0  0  0
    3.5980    2.2782    0.0000 H   0  0  0  0  0  0  0  0  0  0  0  0
    4.3713    0.0000    0.0000 C   0  0  0  0  0  0  0  0  0  0  0  0
    5.7569   -0.8000    0.0000 H   0  0  0  0  0  0  0  0  0  0  0  0
    4.3713   -1.6000    0.0000 H   0  0  0  0  0  0  0  0  0  0  0  0
    5.7569    0.8000    0.0000 H   0  0  0  0  0  0  0  0  0  0  0  0
   -1.6000   -0.0000    0.0000 C   0  0  0  0  0  0  0  0  0  0  0  0
   -2.8694    0.9740    0.0000 H   0  0  0  0  0  0  0  0  0  0  0  0
   -1.8088    1.5863    0.0000 H   0  0  0  0  0  0  0  0  0  0  0  0
   -2.4000   -1.3856    0.0000 C   0  0  0  0  0  0  0  0  0  0  0  0
   -4.0000   -1.3856    0.0000 H   0  0  0  0  0  0  0  0  0  0  0  0
   -3.2001   -2.7713    0.0000 H   0  0  0  0  0  0  0  0  0  0  0  0
   -3.2001   -0.0000    0.0000 H   0  0  0  0  0  0  0  0  0  0  0  0
   -0.0000    1.6000    0.0000 C   0  0  0  0  0  0  0  0  0  0  0  0
   -0.0000    3.2000    0.0000 H   0  0  0  0  0  0  0  0  0  0  0  0
   -1.2256    2.6285    0.0000 H   0  0  0  0  0  0  0  0  0  0  0  0
    1.3856    2.4000    0.0000 H   0  0  0  0  0  0  0  0  0  0  0  0
   -0.0000   -1.6000    0.0000 C   0  0  0  0  0  0  0  0  0  0  0  0
   -0.0000   -3.2000    0.0000 H   0  0  0  0  0  0  0  0  0  0  0  0
    1.2257   -2.6285    0.0000 H   0  0  0  0  0  0  0  0  0  0  0  0
   -1.3856   -2.4000    0.0000 H   0  0  0  0  0  0  0  0  0  0  0  0
  1  2  1  0  0  0  0
  2  3  1  0  0  0  0
  2  4  1  0  0  0  0
  2  5  1  0  0  0  0
  5  6  1  0  0  0  0
  5  7  1  0  0  0  0
  5  8  1  0  0  0  0
  8  9  1  0  0  0  0
  8 10  1  0  0  0  0
  8 11  1  0  0  0  0
  1 12  1  0  0  0  0
 12 13  1  0  0  0  0
 12 14  1  0  0  0  0
 12 15  1  0  0  0  0
 15 16  1  0  0  0  0
 15 17  1  0  0  0  0
 15 18  1  0  0  0  0
  1 19  1  0  0  0  0
 19 20  1  0  0  0  0
 19 21  1  0  0  0  0
 19 22  1  0  0  0  0
  1 23  1  0  0  0  0
 23 24  1  0  0  0  0
 23 25  1  0  0  0  0
 23 26  1  0  0  0  0
M  END
> <ChemID>
101448

> <source_casrn>
563-16-6

> <CAS>
563-16-6

> <SMILES>
CCC(C)(C)CCC

> <NAME>
3,3-DIMETHYL HEXANE

> <preferred_name>
3,3-Dimethylhexane

> <iupac>
3,3-Dimethylhexane

> <MPID>
26058

> <dsstox_substance_id>
DTXSID2073194

> <Canonical_QSARr>
CCC(C)(C)CCC

> <InChI_Code_QSARr>
InChI=1S/C8H18/c1-5-7-8(3,4)6-2/h5-7H2,1-4H3

> <InChI Key_QSARr>
KUMXLFIBWFCMOJ-UHFFFAOYSA-N

> <Salt_Solvent>
?

> <LogVP>
1.4564

$$$$
101452
  -INDIGO-08031723152D

 12 11  0  0  0  0  0  0  0  0999 V2000
    2.7713    0.0000    0.0000 C   0  0  0  0  0  0  0  0  0  0  0  0
    4.1569    0.8000    0.0000 H   0  0  0  0  0  0  0  0  0  0  0  0
    2.7713   -1.6000    0.0000 H   0  0  0  0  0  0  0  0  0  0  0  0
    1.3856    0.8000    0.0000 C   0  0  0  0  0  0  0  0  0  0  0  0
    1.3856    2.4000    0.0000 H   0  0  0  0  0  0  0  0  0  0  0  0
    0.0000    0.0000    0.0000 C   0  0  0  0  0  0  0  0  0  0  0  0
   -0.6123   -1.4782    0.0000 H   0  0  0  0  0  0  0  0  0  0  0  0
   -1.3856    0.8000    0.0000 C   0  0  0  0  0  0  0  0  0  0  0  0
   -2.7713    1.6000    0.0000 H   0  0  0  0  0  0  0  0  0  0  0  0
   -2.7713    0.0000    0.0000 H   0  0  0  0  0  0  0  0  0  0  0  0
   -1.3856    2.4000    0.0000 H   0  0  0  0  0  0  0  0  0  0  0  0
    0.6123   -1.4782    0.0000 Cl  0  0  0  0  0  0  0  0  0  0  0  0
  1  2  1  0  0  0  0
  1  3  1  0  0  0  0
  1  4  2  0  0  0  0
  4  5  1  0  0  0  0
  4  6  1  0  0  0  0
  6  7  1  0  0  0  0
  6  8  1  0  0  0  0
  8  9  1  0  0  0  0
  8 10  1  0  0  0  0
  8 11  1  0  0  0  0
  6 12  1  0  0  0  0
M  END
> <ChemID>
101452

> <source_casrn>
563-52-0

> <CAS>
NOCAS_870614

> <SMILES>
CC(Cl)C=C

> <NAME>
3-CHLORO-1-BUTENE

> <preferred_name>


> <iupac>


> <MPID>
26062

> <dsstox_substance_id>
DTXSID50870614

> <Canonical_QSARr>
CC(Cl)C=C

> <InChI_Code_QSARr>
InChI=1S/C4H7Cl/c1-3-4(2)5/h3-4H,1H2,2H3

> <InChI Key_QSARr>
VZGLVCFVUREVDP-UHFFFAOYSA-N

> <Salt_Solvent>
?

> <LogVP>
2.1847

$$$$
101456
  -INDIGO-08031723152D

  7  6  0  0  0  0  0  0  0  0999 V2000
    1.6000    0.0000    0.0000 N   0  0  0  0  0  0  0  0  0  0  0  0
    2.4000    1.3856    0.0000 O   0  0  0  0  0  0  0  0  0  0  0  0
    2.4000   -1.3856    0.0000 O   0  0  0  0  0  0  0  0  0  0  0  0
    0.0000    0.0000    0.0000 C   0  0  0  0  0  0  0  0  0  0  0  0
   -1.6000    0.0000    0.0000 H   0  0  0  0  0  0  0  0  0  0  0  0
   -0.8000    1.3856    0.0000 H   0  0  0  0  0  0  0  0  0  0  0  0
   -0.8000   -1.3856    0.0000 Br  0  0  0  0  0  0  0  0  0  0  0  0
  1  2  1  0  0  0  0
  1  3  2  0  0  0  0
  1  4  1  0  0  0  0
  4  5  1  0  0  0  0
  4  6  1  0  0  0  0
  4  7  1  0  0  0  0
M  CHG  2   1   1   2  -1
M  END
> <ChemID>
101456

> <source_casrn>
563-70-2

> <CAS>
563-70-2

> <SMILES>
[O-][N+](=O)CBr

> <NAME>
BROMONITROMETHANE

> <preferred_name>
Methane, bromonitro-

> <iupac>
bromo-nitromethane

> <MPID>
26066

> <dsstox_substance_id>
DTXSID7060338

> <Canonical_QSARr>
[O-][N+](=O)CBr

> <InChI_Code_QSARr>
InChI=1S/CH2BrNO2/c2-1-3(4)5/h1H2

> <InChI Key_QSARr>
DNPRVXJGNANVCZ-UHFFFAOYSA-N

> <Salt_Solvent>
?

> <LogVP>
0.4914

$$$$
101460
  -INDIGO-08031723152D

 26 25  0  0  0  0  0  0  0  0999 V2000
   -0.0000    0.0000    0.0000 C   0  0  0  0  0  0  0  0  0  0  0  0
    0.8000   -1.3856    0.0000 C   0  0  0  0  0  0  0  0  0  0  0  0
    2.0257   -0.3572    0.0000 H   0  0  0  0  0  0  0  0  0  0  0  0
    2.0257   -2.4141    0.0000 C   0  0  0  0  0  0  0  0  0  0  0  0
    2.3719   -3.9762    0.0000 H   0  0  0  0  0  0  0  0  0  0  0  0
    1.4133   -3.8923    0.0000 H   0  0  0  0  0  0  0  0  0  0  0  0
    3.5292   -1.8669    0.0000 C   0  0  0  0  0  0  0  0  0  0  0  0
    5.0327   -1.3196    0.0000 H   0  0  0  0  0  0  0  0  0  0  0  0
    4.7549   -2.8953    0.0000 H   0  0  0  0  0  0  0  0  0  0  0  0
    3.8070   -0.2911    0.0000 H   0  0  0  0  0  0  0  0  0  0  0  0
   -0.4256   -2.4141    0.0000 C   0  0  0  0  0  0  0  0  0  0  0  0
   -0.1478   -3.9898    0.0000 H   0  0  0  0  0  0  0  0  0  0  0  0
   -1.6513   -3.4426    0.0000 H   0  0  0  0  0  0  0  0  0  0  0  0
    1.0779   -2.9613    0.0000 H   0  0  0  0  0  0  0  0  0  0  0  0
   -0.8000    1.3856    0.0000 C   0  0  0  0  0  0  0  0  0  0  0  0
   -1.6000    2.7713    0.0000 H   0  0  0  0  0  0  0  0  0  0  0  0
   -2.4000    1.3856    0.0000 H   0  0  0  0  0  0  0  0  0  0  0  0
   -0.0000    2.7713    0.0000 H   0  0  0  0  0  0  0  0  0  0  0  0
    1.2257    1.0285    0.0000 C   0  0  0  0  0  0  0  0  0  0  0  0
    2.4514    2.0570    0.0000 H   0  0  0  0  0  0  0  0  0  0  0  0
    0.9479    2.6042    0.0000 H   0  0  0  0  0  0  0  0  0  0  0  0
    2.7292    0.4813    0.0000 H   0  0  0  0  0  0  0  0  0  0  0  0
   -1.3857   -0.8000    0.0000 C   0  0  0  0  0  0  0  0  0  0  0  0
   -2.7713   -1.6000    0.0000 H   0  0  0  0  0  0  0  0  0  0  0  0
   -2.7713    0.0000    0.0000 H   0  0  0  0  0  0  0  0  0  0  0  0
   -1.3857   -2.4000    0.0000 H   0  0  0  0  0  0  0  0  0  0  0  0
  1  2  1  0  0  0  0
  2  3  1  0  0  0  0
  2  4  1  0  0  0  0
  4  5  1  0  0  0  0
  4  6  1  0  0  0  0
  4  7  1  0  0  0  0
  7  8  1  0  0  0  0
  7  9  1  0  0  0  0
  7 10  1  0  0  0  0
  2 11  1  0  0  0  0
 11 12  1  0  0  0  0
 11 13  1  0  0  0  0
 11 14  1  0  0  0  0
  1 15  1  0  0  0  0
 15 16  1  0  0  0  0
 15 17  1  0  0  0  0
 15 18  1  0  0  0  0
  1 19  1  0  0  0  0
 19 20  1  0  0  0  0
 19 21  1  0  0  0  0
 19 22  1  0  0  0  0
  1 23  1  0  0  0  0
 23 24  1  0  0  0  0
 23 25  1  0  0  0  0
 23 26  1  0  0  0  0
M  END
> <ChemID>
101460

> <source_casrn>
564-02-3

> <CAS>
40824-48-4

> <SMILES>
CC[C@H](C)C(C)(C)C

> <NAME>
2,2,3-TRIMETHYLPENTANE

> <preferred_name>
PUBCHEM_22810197

> <iupac>
C8H18

> <MPID>
26070

> <dsstox_substance_id>
DTXSID80628408

> <Canonical_QSARr>
CCC(C)C(C)(C)C

> <InChI_Code_QSARr>
InChI=1S/C8H18/c1-6-7(2)8(3,4)5/h7H,6H2,1-5H3

> <InChI Key_QSARr>
XTDQDBVBDLYELW-UHFFFAOYSA-N

> <Salt_Solvent>
?

> <LogVP>
1.5065

$$$$
101464
  -INDIGO-08031723152D

 26 25  0  0  0  0  0  0  0  0999 V2000
    0.0001    0.0000    0.0000 C   0  0  0  0  0  0  0  0  0  0  0  0
    0.0001   -1.6000    0.0000 H   0  0  0  0  0  0  0  0  0  0  0  0
   -1.6000   -0.0000    0.0000 C   0  0  0  0  0  0  0  0  0  0  0  0
   -1.6000    1.6000    0.0000 H   0  0  0  0  0  0  0  0  0  0  0  0
   -3.1756    0.2779    0.0000 C   0  0  0  0  0  0  0  0  0  0  0  0
   -4.7514    0.5557    0.0000 H   0  0  0  0  0  0  0  0  0  0  0  0
   -4.2041   -0.9478    0.0000 H   0  0  0  0  0  0  0  0  0  0  0  0
   -3.7229    1.7813    0.0000 H   0  0  0  0  0  0  0  0  0  0  0  0
   -1.6000   -1.6000    0.0000 C   0  0  0  0  0  0  0  0  0  0  0  0
   -1.6000   -3.2000    0.0000 H   0  0  0  0  0  0  0  0  0  0  0  0
   -2.9857   -2.4000    0.0000 H   0  0  0  0  0  0  0  0  0  0  0  0
   -2.9857   -0.8000    0.0000 H   0  0  0  0  0  0  0  0  0  0  0  0
    1.6000    0.0000    0.0000 C   0  0  0  0  0  0  0  0  0  0  0  0
    1.3222    1.5757    0.0000 H   0  0  0  0  0  0  0  0  0  0  0  0
    3.1756    0.2779    0.0000 C   0  0  0  0  0  0  0  0  0  0  0  0
    4.7514    0.5557    0.0000 H   0  0  0  0  0  0  0  0  0  0  0  0
    4.2041   -0.9478    0.0000 H   0  0  0  0  0  0  0  0  0  0  0  0
    3.7229    1.7813    0.0000 H   0  0  0  0  0  0  0  0  0  0  0  0
    1.8779   -1.5757    0.0000 C   0  0  0  0  0  0  0  0  0  0  0  0
    2.1557   -3.1514    0.0000 H   0  0  0  0  0  0  0  0  0  0  0  0
    3.3814   -2.1229    0.0000 H   0  0  0  0  0  0  0  0  0  0  0  0
    0.6522   -2.6042    0.0000 H   0  0  0  0  0  0  0  0  0  0  0  0
    0.0001    1.6000    0.0000 C   0  0  0  0  0  0  0  0  0  0  0  0
   -0.0001    3.2000    0.0000 H   0  0  0  0  0  0  0  0  0  0  0  0
    1.2256    2.6285    0.0000 H   0  0  0  0  0  0  0  0  0  0  0  0
   -1.2256    2.6285    0.0000 H   0  0  0  0  0  0  0  0  0  0  0  0
  1  2  1  0  0  0  0
  1  3  1  0  0  0  0
  3  4  1  0  0  0  0
  3  5  1  0  0  0  0
  5  6  1  0  0  0  0
  5  7  1  0  0  0  0
  5  8  1  0  0  0  0
  3  9  1  0  0  0  0
  9 10  1  0  0  0  0
  9 11  1  0  0  0  0
  9 12  1  0  0  0  0
  1 13  1  0  0  0  0
 13 14  1  0  0  0  0
 13 15  1  0  0  0  0
 15 16  1  0  0  0  0
 15 17  1  0  0  0  0
 15 18  1  0  0  0  0
 13 19  1  0  0  0  0
 19 20  1  0  0  0  0
 19 21  1  0  0  0  0
 19 22  1  0  0  0  0
  1 23  1  0  0  0  0
 23 24  1  0  0  0  0
 23 25  1  0  0  0  0
 23 26  1  0  0  0  0
M  END
> <ChemID>
101464

> <source_casrn>
565-75-3

> <CAS>
565-75-3

> <SMILES>
CC(C(C)C)C(C)C

> <NAME>
2,3,4-TRIMETHYLPENTANE

> <preferred_name>
2,3,4-Trimethylpentane

> <iupac>
2,3,4-Trimethylpentane

> <MPID>
26074

> <dsstox_substance_id>
DTXSID6060343

> <Canonical_QSARr>
CC(C(C)C)C(C)C

> <InChI_Code_QSARr>
InChI=1S/C8H18/c1-6(2)8(5)7(3)4/h6-8H,1-5H3

> <InChI Key_QSARr>
RLPGDEORIPLBNF-UHFFFAOYSA-N

> <Salt_Solvent>
?

> <LogVP>
1.433

$$$$
101468
  -INDIGO-08031723152D

 24 25  0  0  0  0  0  0  0  0999 V2000
   -0.0000    0.0000    0.0000 C   0  0  0  0  0  0  0  0  0  0  0  0
   -0.8000    1.3856    0.0000 C   0  0  0  0  0  0  0  0  0  0  0  0
   -0.0000    2.7713    0.0000 H   0  0  0  0  0  0  0  0  0  0  0  0
   -2.4000    1.3856    0.0000 C   0  0  0  0  0  0  0  0  0  0  0  0
   -3.2001    2.7713    0.0000 H   0  0  0  0  0  0  0  0  0  0  0  0
   -3.2001    0.0000    0.0000 C   0  0  0  0  0  0  0  0  0  0  0  0
   -4.8000    0.0000    0.0000 H   0  0  0  0  0  0  0  0  0  0  0  0
   -2.4000   -1.3856    0.0000 C   0  0  0  0  0  0  0  0  0  0  0  0
   -3.2001   -2.7713    0.0000 H   0  0  0  0  0  0  0  0  0  0  0  0
   -0.8000   -1.3857    0.0000 C   0  0  0  0  0  0  0  0  0  0  0  0
   -0.0000   -2.7713    0.0000 C   0  0  0  0  0  0  0  0  0  0  0  0
   -0.8000   -4.1570    0.0000 C   0  0  0  0  0  0  0  0  0  0  0  0
   -1.6000   -5.5426    0.0000 H   0  0  0  0  0  0  0  0  0  0  0  0
   -0.0000   -5.5426    0.0000 H   0  0  0  0  0  0  0  0  0  0  0  0
   -2.4000   -4.1570    0.0000 H   0  0  0  0  0  0  0  0  0  0  0  0
    1.6000   -2.7713    0.0000 C   0  0  0  0  0  0  0  0  0  0  0  0
    2.4001   -4.1569    0.0000 H   0  0  0  0  0  0  0  0  0  0  0  0
    2.4001   -1.3856    0.0000 C   0  0  0  0  0  0  0  0  0  0  0  0
    4.0000   -1.3856    0.0000 H   0  0  0  0  0  0  0  0  0  0  0  0
    1.6000    0.0000    0.0000 C   0  0  0  0  0  0  0  0  0  0  0  0
    2.4001    1.3857    0.0000 C   0  0  0  0  0  0  0  0  0  0  0  0
    3.2000    2.7713    0.0000 H   0  0  0  0  0  0  0  0  0  0  0  0
    4.0000    1.3857    0.0000 H   0  0  0  0  0  0  0  0  0  0  0  0
    1.6000    2.7713    0.0000 H   0  0  0  0  0  0  0  0  0  0  0  0
  1  2  1  0  0  0  0
  2  3  1  0  0  0  0
  2  4  2  0  0  0  0
  4  5  1  0  0  0  0
  4  6  1  0  0  0  0
  6  7  1  0  0  0  0
  6  8  2  0  0  0  0
  8  9  1  0  0  0  0
  8 10  1  0  0  0  0
 10  1  1  0  0  0  0
 10 11  2  0  0  0  0
 11 12  1  0  0  0  0
 12 13  1  0  0  0  0
 12 14  1  0  0  0  0
 12 15  1  0  0  0  0
 11 16  1  0  0  0  0
 16 17  1  0  0  0  0
 16 18  2  0  0  0  0
 18 19  1  0  0  0  0
 18 20  1  0  0  0  0
 20  1  2  0  0  0  0
 20 21  1  0  0  0  0
 21 22  1  0  0  0  0
 21 23  1  0  0  0  0
 21 24  1  0  0  0  0
M  END
> <ChemID>
101468

> <source_casrn>
571-58-4

> <CAS>
571-58-4

> <SMILES>
Cc1ccc(C)c2ccccc12

> <NAME>
1,4-DIMETHYLNAPHTHALENE

> <preferred_name>
1,4-Dimethylnaphthalene

> <iupac>
1,4-dimethylnaphthalene

> <MPID>
26078

> <dsstox_substance_id>
DTXSID8035423

> <Canonical_QSARr>
Cc1ccc(C)c2ccccc12

> <InChI_Code_QSARr>
InChI=1S/C12H12/c1-9-7-8-10(2)12-6-4-3-5-11(9)12/h3-8H,1-2H3

> <InChI Key_QSARr>
APQSQLNWAIULLK-UHFFFAOYSA-N

> <Salt_Solvent>
?

> <LogVP>
-1.6696

$$$$
101472
  -INDIGO-08031723152D

 24 25  0  0  0  0  0  0  0  0999 V2000
   -0.0000    0.0000    0.0000 C   0  0  0  0  0  0  0  0  0  0  0  0
   -0.8000    1.3856    0.0000 C   0  0  0  0  0  0  0  0  0  0  0  0
   -0.0000    2.7713    0.0000 H   0  0  0  0  0  0  0  0  0  0  0  0
   -2.4000    1.3856    0.0000 C   0  0  0  0  0  0  0  0  0  0  0  0
   -3.1999    2.7713    0.0000 H   0  0  0  0  0  0  0  0  0  0  0  0
   -3.1999    0.0000    0.0000 C   0  0  0  0  0  0  0  0  0  0  0  0
   -4.8000    0.0000    0.0000 C   0  0  0  0  0  0  0  0  0  0  0  0
   -6.4000    0.0000    0.0000 H   0  0  0  0  0  0  0  0  0  0  0  0
   -5.6000    1.3856    0.0000 H   0  0  0  0  0  0  0  0  0  0  0  0
   -5.6000   -1.3856    0.0000 H   0  0  0  0  0  0  0  0  0  0  0  0
   -2.4000   -1.3856    0.0000 C   0  0  0  0  0  0  0  0  0  0  0  0
   -3.1999   -2.7713    0.0000 H   0  0  0  0  0  0  0  0  0  0  0  0
   -0.8000   -1.3856    0.0000 C   0  0  0  0  0  0  0  0  0  0  0  0
   -0.0000   -2.7713    0.0000 C   0  0  0  0  0  0  0  0  0  0  0  0
   -0.8000   -4.1569    0.0000 H   0  0  0  0  0  0  0  0  0  0  0  0
    1.6001   -2.7713    0.0000 C   0  0  0  0  0  0  0  0  0  0  0  0
    2.4001   -4.1569    0.0000 H   0  0  0  0  0  0  0  0  0  0  0  0
    2.4001   -1.3856    0.0000 C   0  0  0  0  0  0  0  0  0  0  0  0
    4.0000   -1.3856    0.0000 H   0  0  0  0  0  0  0  0  0  0  0  0
    1.6001    0.0000    0.0000 C   0  0  0  0  0  0  0  0  0  0  0  0
    2.4001    1.3856    0.0000 C   0  0  0  0  0  0  0  0  0  0  0  0
    3.2000    2.7713    0.0000 H   0  0  0  0  0  0  0  0  0  0  0  0
    4.0000    1.3856    0.0000 H   0  0  0  0  0  0  0  0  0  0  0  0
    1.6001    2.7713    0.0000 H   0  0  0  0  0  0  0  0  0  0  0  0
  1  2  1  0  0  0  0
  2  3  1  0  0  0  0
  2  4  2  0  0  0  0
  4  5  1  0  0  0  0
  4  6  1  0  0  0  0
  6  7  1  0  0  0  0
  7  8  1  0  0  0  0
  7  9  1  0  0  0  0
  7 10  1  0  0  0  0
  6 11  2  0  0  0  0
 11 12  1  0  0  0  0
 11 13  1  0  0  0  0
 13  1  1  0  0  0  0
 13 14  2  0  0  0  0
 14 15  1  0  0  0  0
 14 16  1  0  0  0  0
 16 17  1  0  0  0  0
 16 18  2  0  0  0  0
 18 19  1  0  0  0  0
 18 20  1  0  0  0  0
 20  1  2  0  0  0  0
 20 21  1  0  0  0  0
 21 22  1  0  0  0  0
 21 23  1  0  0  0  0
 21 24  1  0  0  0  0
M  END
> <ChemID>
101472

> <source_casrn>
575-43-9

> <CAS>
575-43-9

> <SMILES>
Cc1cc2cccc(C)c2cc1

> <NAME>
1,6-DIMETHYLNAPHTHALENE

> <preferred_name>
1,6-Dimethylnaphthalene

> <iupac>
1,6-dimethylnaphthalene

> <MPID>
26082

> <dsstox_substance_id>
DTXSID7022415

> <Canonical_QSARr>
Cc1cc2cccc(C)c2cc1

> <InChI_Code_QSARr>
InChI=1S/C12H12/c1-9-6-7-12-10(2)4-3-5-11(12)8-9/h3-8H,1-2H3

> <InChI Key_QSARr>
CBMXCNPQDUJNHT-UHFFFAOYSA-N

> <Salt_Solvent>
?

> <LogVP>
-1.8356

$$$$
101476
  -INDIGO-08031723152D

 20 20  0  0  0  0  0  0  0  0999 V2000
    0.0000    2.7713    0.0000 N   0  0  0  0  0  0  0  0  0  0  0  0
    0.8000    4.1569    0.0000 H   0  0  0  0  0  0  0  0  0  0  0  0
   -1.6000    2.7713    0.0000 H   0  0  0  0  0  0  0  0  0  0  0  0
    0.8000    1.3856    0.0000 C   0  0  0  0  0  0  0  0  0  0  0  0
    0.0000    0.0000    0.0000 C   0  0  0  0  0  0  0  0  0  0  0  0
   -1.6000    0.0000    0.0000 C   0  0  0  0  0  0  0  0  0  0  0  0
   -2.8694    0.9740    0.0000 H   0  0  0  0  0  0  0  0  0  0  0  0
   -1.8088    1.5863    0.0000 H   0  0  0  0  0  0  0  0  0  0  0  0
   -2.4001   -1.3856    0.0000 C   0  0  0  0  0  0  0  0  0  0  0  0
   -4.0000   -1.3856    0.0000 H   0  0  0  0  0  0  0  0  0  0  0  0
   -3.2000   -2.7713    0.0000 H   0  0  0  0  0  0  0  0  0  0  0  0
   -3.2000    0.0000    0.0000 H   0  0  0  0  0  0  0  0  0  0  0  0
    0.8000   -1.3856    0.0000 C   0  0  0  0  0  0  0  0  0  0  0  0
    0.0000   -2.7713    0.0000 H   0  0  0  0  0  0  0  0  0  0  0  0
    2.4000   -1.3856    0.0000 C   0  0  0  0  0  0  0  0  0  0  0  0
    3.2001   -2.7713    0.0000 H   0  0  0  0  0  0  0  0  0  0  0  0
    3.2001    0.0000    0.0000 C   0  0  0  0  0  0  0  0  0  0  0  0
    4.8000    0.0000    0.0000 H   0  0  0  0  0  0  0  0  0  0  0  0
    2.4000    1.3856    0.0000 C   0  0  0  0  0  0  0  0  0  0  0  0
    3.2001    2.7713    0.0000 H   0  0  0  0  0  0  0  0  0  0  0  0
  1  2  1  0  0  0  0
  1  3  1  0  0  0  0
  1  4  1  0  0  0  0
  4  5  1  0  0  0  0
  5  6  1  0  0  0  0
  6  7  1  0  0  0  0
  6  8  1  0  0  0  0
  6  9  1  0  0  0  0
  9 10  1  0  0  0  0
  9 11  1  0  0  0  0
  9 12  1  0  0  0  0
  5 13  2  0  0  0  0
 13 14  1  0  0  0  0
 13 15  1  0  0  0  0
 15 16  1  0  0  0  0
 15 17  2  0  0  0  0
 17 18  1  0  0  0  0
 17 19  1  0  0  0  0
 19  4  2  0  0  0  0
 19 20  1  0  0  0  0
M  END
> <ChemID>
101476

> <source_casrn>
578-54-1

> <CAS>
578-54-1

> <SMILES>
CCc1ccccc1N

> <NAME>
O-ETHYLANILINE

> <preferred_name>
2-Ethylaniline

> <iupac>
2-ethylaniline

> <MPID>
26086

> <dsstox_substance_id>
DTXSID0042242

> <Canonical_QSARr>
CCc1ccccc1N

> <InChI_Code_QSARr>
InChI=1S/C8H11N/c1-2-7-5-3-4-6-8(7)9/h3-6H,2,9H2,1H3

> <InChI Key_QSARr>
MLPVBIWIRCKMJV-UHFFFAOYSA-N

> <Salt_Solvent>
?

> <LogVP>
-0.7696

$$$$
101481
  -INDIGO-08031723152D

 19 20  0  0  0  0  0  0  0  0999 V2000
   -1.3857   -2.4000    0.0000 N   0  0  0  0  0  0  0  0  0  0  0  0
   -0.0001   -1.6000    0.0000 C   0  0  0  0  0  0  0  0  0  0  0  0
   -0.0001   -0.0000    0.0000 C   0  0  0  0  0  0  0  0  0  0  0  0
    1.3857    0.8000    0.0000 C   0  0  0  0  0  0  0  0  0  0  0  0
    1.3857    2.4000    0.0000 H   0  0  0  0  0  0  0  0  0  0  0  0
    2.7713   -0.0000    0.0000 C   0  0  0  0  0  0  0  0  0  0  0  0
    4.1569    0.8000    0.0000 N   0  0  0  0  0  0  0  0  0  0  0  0
    5.5426   -0.0000    0.0000 H   0  0  0  0  0  0  0  0  0  0  0  0
    4.1569    2.4000    0.0000 H   0  0  0  0  0  0  0  0  0  0  0  0
    2.7713   -1.6000    0.0000 C   0  0  0  0  0  0  0  0  0  0  0  0
    4.1569   -2.4000    0.0000 H   0  0  0  0  0  0  0  0  0  0  0  0
    1.3857   -2.4000    0.0000 C   0  0  0  0  0  0  0  0  0  0  0  0
    1.3857   -4.0000    0.0000 H   0  0  0  0  0  0  0  0  0  0  0  0
   -1.3857    0.8000    0.0000 C   0  0  0  0  0  0  0  0  0  0  0  0
   -1.3857    2.4000    0.0000 H   0  0  0  0  0  0  0  0  0  0  0  0
   -2.7713   -0.0000    0.0000 C   0  0  0  0  0  0  0  0  0  0  0  0
   -4.1569    0.8000    0.0000 H   0  0  0  0  0  0  0  0  0  0  0  0
   -2.7713   -1.6000    0.0000 C   0  0  0  0  0  0  0  0  0  0  0  0
   -4.1569   -2.4000    0.0000 H   0  0  0  0  0  0  0  0  0  0  0  0
  1  2  1  0  0  0  0
  2  3  1  0  0  0  0
  3  4  2  0  0  0  0
  4  5  1  0  0  0  0
  4  6  1  0  0  0  0
  6  7  1  0  0  0  0
  7  8  1  0  0  0  0
  7  9  1  0  0  0  0
  6 10  2  0  0  0  0
 10 11  1  0  0  0  0
 10 12  1  0  0  0  0
 12  2  2  0  0  0  0
 12 13  1  0  0  0  0
  3 14  1  0  0  0  0
 14 15  1  0  0  0  0
 14 16  2  0  0  0  0
 16 17  1  0  0  0  0
 16 18  1  0  0  0  0
 18  1  2  0  0  0  0
 18 19  1  0  0  0  0
M  END
> <ChemID>
101481

> <source_casrn>
580-15-4

> <CAS>
580-15-4

> <SMILES>
Nc1cc2ccc[n]c2cc1

> <NAME>
6-AMINOQUINOLINE

> <preferred_name>
6-Aminoquinoline

> <iupac>
Quinolin-6-amine

> <MPID>
26091

> <dsstox_substance_id>
DTXSID80206725

> <Canonical_QSARr>
Nc1cc2ccc[n]c2cc1

> <InChI_Code_QSARr>
InChI=1S/C9H8N2/c10-8-3-4-9-7(6-8)2-1-5-11-9/h1-6H,10H2

> <InChI Key_QSARr>
RJSRSRITMWVIQT-UHFFFAOYSA-N

> <Salt_Solvent>
?

> <LogVP>
-4.7878

$$$$
101485
  -INDIGO-08031723152D

 24 25  0  0  0  0  0  0  0  0999 V2000
   -0.0001    1.6000    0.0000 C   0  0  0  0  0  0  0  0  0  0  0  0
    1.3856    2.4000    0.0000 C   0  0  0  0  0  0  0  0  0  0  0  0
    1.3856    4.0000    0.0000 H   0  0  0  0  0  0  0  0  0  0  0  0
    2.7712    1.6000    0.0000 C   0  0  0  0  0  0  0  0  0  0  0  0
    4.1569    2.4000    0.0000 H   0  0  0  0  0  0  0  0  0  0  0  0
    2.7712    0.0000    0.0000 C   0  0  0  0  0  0  0  0  0  0  0  0
    4.1569   -0.8000    0.0000 C   0  0  0  0  0  0  0  0  0  0  0  0
    5.5426   -1.6000    0.0000 H   0  0  0  0  0  0  0  0  0  0  0  0
    5.5426    0.0000    0.0000 H   0  0  0  0  0  0  0  0  0  0  0  0
    4.1569   -2.4000    0.0000 H   0  0  0  0  0  0  0  0  0  0  0  0
    1.3856   -0.8000    0.0000 C   0  0  0  0  0  0  0  0  0  0  0  0
    1.3856   -2.4000    0.0000 H   0  0  0  0  0  0  0  0  0  0  0  0
   -0.0001    0.0000    0.0000 C   0  0  0  0  0  0  0  0  0  0  0  0
   -1.3856   -0.8000    0.0000 C   0  0  0  0  0  0  0  0  0  0  0  0
   -1.3856   -2.4000    0.0000 H   0  0  0  0  0  0  0  0  0  0  0  0
   -2.7712    0.0000    0.0000 C   0  0  0  0  0  0  0  0  0  0  0  0
   -4.1569   -0.8000    0.0000 C   0  0  0  0  0  0  0  0  0  0  0  0
   -5.5426   -1.6000    0.0000 H   0  0  0  0  0  0  0  0  0  0  0  0
   -5.5426    0.0000    0.0000 H   0  0  0  0  0  0  0  0  0  0  0  0
   -4.1569   -2.4000    0.0000 H   0  0  0  0  0  0  0  0  0  0  0  0
   -2.7712    1.6000    0.0000 C   0  0  0  0  0  0  0  0  0  0  0  0
   -4.1569    2.4000    0.0000 H   0  0  0  0  0  0  0  0  0  0  0  0
   -1.3856    2.4000    0.0000 C   0  0  0  0  0  0  0  0  0  0  0  0
   -1.3856    4.0000    0.0000 H   0  0  0  0  0  0  0  0  0  0  0  0
  1  2  1  0  0  0  0
  2  3  1  0  0  0  0
  2  4  2  0  0  0  0
  4  5  1  0  0  0  0
  4  6  1  0  0  0  0
  6  7  1  0  0  0  0
  7  8  1  0  0  0  0
  7  9  1  0  0  0  0
  7 10  1  0  0  0  0
  6 11  2  0  0  0  0
 11 12  1  0  0  0  0
 11 13  1  0  0  0  0
 13  1  1  0  0  0  0
 13 14  2  0  0  0  0
 14 15  1  0  0  0  0
 14 16  1  0  0  0  0
 16 17  1  0  0  0  0
 17 18  1  0  0  0  0
 17 19  1  0  0  0  0
 17 20  1  0  0  0  0
 16 21  2  0  0  0  0
 21 22  1  0  0  0  0
 21 23  1  0  0  0  0
 23  1  2  0  0  0  0
 23 24  1  0  0  0  0
M  END
> <ChemID>
101485

> <source_casrn>
582-16-1

> <CAS>
582-16-1

> <SMILES>
Cc1cc2cc(C)ccc2cc1

> <NAME>
2,7-DIMETHYLNAPHTHALENE

> <preferred_name>
2,7-Dimethylnaphthalene

> <iupac>
2,7-Dimethylnaphthalene

> <MPID>
26095

> <dsstox_substance_id>
DTXSID7060386

> <Canonical_QSARr>
Cc1cc2cc(C)ccc2cc1

> <InChI_Code_QSARr>
InChI=1S/C12H12/c1-9-3-5-11-6-4-10(2)8-12(11)7-9/h3-8H,1-2H3

> <InChI Key_QSARr>
LRQYSMQNJLZKPS-UHFFFAOYSA-N

> <Salt_Solvent>
?

> <LogVP>
-2.2457

$$$$
101489
  -INDIGO-08031723152D

 20 20  0  0  0  0  0  0  0  0999 V2000
   -0.0000    0.0000    0.0000 C   0  0  0  0  0  0  0  0  0  0  0  0
    0.5472    1.5035    0.0000 H   0  0  0  0  0  0  0  0  0  0  0  0
   -1.3856    0.8000    0.0000 C   0  0  0  0  0  0  0  0  0  0  0  0
   -0.3572    2.0257    0.0000 H   0  0  0  0  0  0  0  0  0  0  0  0
   -2.4141    2.0257    0.0000 H   0  0  0  0  0  0  0  0  0  0  0  0
   -2.7713    0.0000    0.0000 C   0  0  0  0  0  0  0  0  0  0  0  0
   -3.3185    1.5035    0.0000 H   0  0  0  0  0  0  0  0  0  0  0  0
   -4.3470   -0.2778    0.0000 H   0  0  0  0  0  0  0  0  0  0  0  0
   -2.7713   -1.6000    0.0000 C   0  0  0  0  0  0  0  0  0  0  0  0
   -4.3470   -1.3222    0.0000 H   0  0  0  0  0  0  0  0  0  0  0  0
   -3.3185   -3.1035    0.0000 H   0  0  0  0  0  0  0  0  0  0  0  0
   -1.3856   -2.4000    0.0000 C   0  0  0  0  0  0  0  0  0  0  0  0
   -2.4141   -3.6257    0.0000 H   0  0  0  0  0  0  0  0  0  0  0  0
   -0.3572   -3.6257    0.0000 H   0  0  0  0  0  0  0  0  0  0  0  0
   -0.0000   -1.6000    0.0000 C   0  0  0  0  0  0  0  0  0  0  0  0
    1.3857   -2.4000    0.0000 O   0  0  0  0  0  0  0  0  0  0  0  0
    1.5757   -0.2778    0.0000 C   0  0  0  0  0  0  0  0  0  0  0  0
    3.1514   -0.5557    0.0000 H   0  0  0  0  0  0  0  0  0  0  0  0
    2.6041    0.9478    0.0000 H   0  0  0  0  0  0  0  0  0  0  0  0
    2.1229   -1.7814    0.0000 H   0  0  0  0  0  0  0  0  0  0  0  0
  1  2  1  0  0  0  0
  1  3  1  0  0  0  0
  3  4  1  0  0  0  0
  3  5  1  0  0  0  0
  3  6  1  0  0  0  0
  6  7  1  0  0  0  0
  6  8  1  0  0  0  0
  6  9  1  0  0  0  0
  9 10  1  0  0  0  0
  9 11  1  0  0  0  0
  9 12  1  0  0  0  0
 12 13  1  0  0  0  0
 12 14  1  0  0  0  0
 12 15  1  0  0  0  0
 15  1  1  0  0  0  0
 15 16  2  0  0  0  0
  1 17  1  0  0  0  0
 17 18  1  0  0  0  0
 17 19  1  0  0  0  0
 17 20  1  0  0  0  0
M  END
> <ChemID>
101489

> <source_casrn>
583-60-8

> <CAS>
583-60-8

> <SMILES>
CC1CCCCC1=O

> <NAME>
2-METHYLCYCLOHEXANONE

> <preferred_name>
2-Methylcyclohexanone

> <iupac>
2-methylcyclohexanone

> <MPID>
26099

> <dsstox_substance_id>
DTXSID6052245

> <Canonical_QSARr>
CC1CCCCC1=O

> <InChI_Code_QSARr>
InChI=1S/C7H12O/c1-6-4-2-3-5-7(6)8/h6H,2-5H2,1H3

> <InChI Key_QSARr>
LFSAPCRASZRSKS-UHFFFAOYSA-N

> <Salt_Solvent>
?

> <LogVP>
0.3522

$$$$
101493
  -INDIGO-08031723152D

 16 15  0  0  0  0  0  0  0  0999 V2000
   -1.3856   -0.8000    0.0000 C   0  0  0  0  0  0  0  0  0  0  0  0
   -0.7734   -2.2782    0.0000 H   0  0  0  0  0  0  0  0  0  0  0  0
   -1.9979   -2.2782    0.0000 H   0  0  0  0  0  0  0  0  0  0  0  0
    0.0001    0.0000    0.0000 C   0  0  0  0  0  0  0  0  0  0  0  0
    0.8000   -1.3856    0.0000 H   0  0  0  0  0  0  0  0  0  0  0  0
    1.3856    0.8000    0.0000 C   0  0  0  0  0  0  0  0  0  0  0  0
    0.7734    2.2782    0.0000 H   0  0  0  0  0  0  0  0  0  0  0  0
    1.9979    2.2782    0.0000 H   0  0  0  0  0  0  0  0  0  0  0  0
    2.7712    0.0000    0.0000 C   0  0  0  0  0  0  0  0  0  0  0  0
    4.1569   -0.8000    0.0000 H   0  0  0  0  0  0  0  0  0  0  0  0
    4.1569    0.8000    0.0000 H   0  0  0  0  0  0  0  0  0  0  0  0
    2.7713   -1.6000    0.0000 H   0  0  0  0  0  0  0  0  0  0  0  0
   -0.8000    1.3856    0.0000 O   0  0  0  0  0  0  0  0  0  0  0  0
   -2.4000    1.3856    0.0000 H   0  0  0  0  0  0  0  0  0  0  0  0
   -2.7712    0.0000    0.0000 O   0  0  0  0  0  0  0  0  0  0  0  0
   -4.1569   -0.8000    0.0000 H   0  0  0  0  0  0  0  0  0  0  0  0
  1  2  1  0  0  0  0
  1  3  1  0  0  0  0
  1  4  1  0  0  0  0
  4  5  1  0  0  0  0
  4  6  1  0  0  0  0
  6  7  1  0  0  0  0
  6  8  1  0  0  0  0
  6  9  1  0  0  0  0
  9 10  1  0  0  0  0
  9 11  1  0  0  0  0
  9 12  1  0  0  0  0
  4 13  1  0  0  0  0
 13 14  1  0  0  0  0
  1 15  1  0  0  0  0
 15 16  1  0  0  0  0
M  END
> <ChemID>
101493

> <source_casrn>
584-03-2

> <CAS>
584-03-2

> <SMILES>
CCC(O)CO

> <NAME>
1,2-BUTANEDIOL

> <preferred_name>
1,2-Butanediol

> <iupac>
butane-1,2-diol

> <MPID>
26103

> <dsstox_substance_id>
DTXSID6040375

> <Canonical_QSARr>
CCC(O)CO

> <InChI_Code_QSARr>
InChI=1S/C4H10O2/c1-2-4(6)3-5/h4-6H,2-3H2,1H3

> <InChI Key_QSARr>
BMRWNKZVCUKKSR-UHFFFAOYSA-N

> <Salt_Solvent>
?

> <LogVP>
-1.3002

$$$$
101497
  -INDIGO-08031723152D

 25 25  0  0  0  0  0  0  0  0999 V2000
    4.0000    1.3857    0.0000 C   0  0  0  0  0  0  0  0  0  0  0  0
    4.8001    2.7713    0.0000 O   0  0  0  0  0  0  0  0  0  0  0  0
    6.4000    2.7713    0.0000 H   0  0  0  0  0  0  0  0  0  0  0  0
    2.4000    1.3857    0.0000 C   0  0  0  0  0  0  0  0  0  0  0  0
    1.5999    2.7713    0.0000 H   0  0  0  0  0  0  0  0  0  0  0  0
    1.5999    0.0000    0.0000 C   0  0  0  0  0  0  0  0  0  0  0  0
    0.0000    0.0000    0.0000 C   0  0  0  0  0  0  0  0  0  0  0  0
   -1.6001    0.0000    0.0000 C   0  0  0  0  0  0  0  0  0  0  0  0
   -3.2000   -0.0000    0.0000 H   0  0  0  0  0  0  0  0  0  0  0  0
   -2.6284   -1.2256    0.0000 H   0  0  0  0  0  0  0  0  0  0  0  0
   -2.6284    1.2256    0.0000 H   0  0  0  0  0  0  0  0  0  0  0  0
    0.0000   -1.6000    0.0000 C   0  0  0  0  0  0  0  0  0  0  0  0
    0.2779   -3.1757    0.0000 H   0  0  0  0  0  0  0  0  0  0  0  0
   -1.2257   -2.6285    0.0000 H   0  0  0  0  0  0  0  0  0  0  0  0
   -1.5035   -1.0527    0.0000 H   0  0  0  0  0  0  0  0  0  0  0  0
    0.0000    1.6000    0.0000 C   0  0  0  0  0  0  0  0  0  0  0  0
    0.2779    3.1757    0.0000 H   0  0  0  0  0  0  0  0  0  0  0  0
   -1.2257    2.6285    0.0000 H   0  0  0  0  0  0  0  0  0  0  0  0
   -1.5035    1.0527    0.0000 H   0  0  0  0  0  0  0  0  0  0  0  0
    2.4000   -1.3857    0.0000 C   0  0  0  0  0  0  0  0  0  0  0  0
    1.6001   -2.7713    0.0000 H   0  0  0  0  0  0  0  0  0  0  0  0
    4.0000   -1.3857    0.0000 C   0  0  0  0  0  0  0  0  0  0  0  0
    4.8001   -2.7713    0.0000 H   0  0  0  0  0  0  0  0  0  0  0  0
    4.8001   -0.0000    0.0000 C   0  0  0  0  0  0  0  0  0  0  0  0
    6.4000   -0.0000    0.0000 H   0  0  0  0  0  0  0  0  0  0  0  0
  1  2  1  0  0  0  0
  2  3  1  0  0  0  0
  1  4  1  0  0  0  0
  4  5  1  0  0  0  0
  4  6  2  0  0  0  0
  6  7  1  0  0  0  0
  7  8  1  0  0  0  0
  8  9  1  0  0  0  0
  8 10  1  0  0  0  0
  8 11  1  0  0  0  0
  7 12  1  0  0  0  0
 12 13  1  0  0  0  0
 12 14  1  0  0  0  0
 12 15  1  0  0  0  0
  7 16  1  0  0  0  0
 16 17  1  0  0  0  0
 16 18  1  0  0  0  0
 16 19  1  0  0  0  0
  6 20  1  0  0  0  0
 20 21  1  0  0  0  0
 20 22  2  0  0  0  0
 22 23  1  0  0  0  0
 22 24  1  0  0  0  0
 24  1  2  0  0  0  0
 24 25  1  0  0  0  0
M  END
> <ChemID>
101497

> <source_casrn>
585-34-2

> <CAS>
585-34-2

> <SMILES>
CC(C)(C)c1cccc(O)c1

> <NAME>
PHENOL, 3-(1,1-DIMETHYLETHYL)-

> <preferred_name>
3-tert-Butylphenol

> <iupac>
3-tert-butylphenol

> <MPID>
26107

> <dsstox_substance_id>
DTXSID9044825

> <Canonical_QSARr>
CC(C)(C)c1cccc(O)c1

> <InChI_Code_QSARr>
InChI=1S/C10H14O/c1-10(2,3)8-5-4-6-9(11)7-8/h4-7,11H,1-3H3

> <InChI Key_QSARr>
CYEKUDPFXBLGHH-UHFFFAOYSA-N

> <Salt_Solvent>
?

> <LogVP>
-1.6968

$$$$
101501
  -INDIGO-08031723152D

 15 15  0  0  0  0  0  0  0  0999 V2000
   -0.8000    1.3856    0.0000 C   0  0  0  0  0  0  0  0  0  0  0  0
   -0.0000    2.7713    0.0000 H   0  0  0  0  0  0  0  0  0  0  0  0
   -2.4000    1.3856    0.0000 C   0  0  0  0  0  0  0  0  0  0  0  0
   -3.2001    2.7713    0.0000 H   0  0  0  0  0  0  0  0  0  0  0  0
   -3.2001    0.0000    0.0000 C   0  0  0  0  0  0  0  0  0  0  0  0
   -4.8000    0.0000    0.0000 Br  0  0  0  0  0  0  0  0  0  0  0  0
   -2.4000   -1.3856    0.0000 C   0  0  0  0  0  0  0  0  0  0  0  0
   -3.2001   -2.7713    0.0000 H   0  0  0  0  0  0  0  0  0  0  0  0
   -0.8000   -1.3856    0.0000 C   0  0  0  0  0  0  0  0  0  0  0  0
   -0.0000   -2.7713    0.0000 H   0  0  0  0  0  0  0  0  0  0  0  0
   -0.0000   -0.0000    0.0000 C   0  0  0  0  0  0  0  0  0  0  0  0
    1.6000    0.0000    0.0000 C   0  0  0  0  0  0  0  0  0  0  0  0
    2.4001    1.3856    0.0000 O   0  0  0  0  0  0  0  0  0  0  0  0
    2.4001   -1.3856    0.0000 O   0  0  0  0  0  0  0  0  0  0  0  0
    4.0000   -1.3856    0.0000 H   0  0  0  0  0  0  0  0  0  0  0  0
  1  2  1  0  0  0  0
  1  3  1  0  0  0  0
  3  4  1  0  0  0  0
  3  5  2  0  0  0  0
  5  6  1  0  0  0  0
  5  7  1  0  0  0  0
  7  8  1  0  0  0  0
  7  9  2  0  0  0  0
  9 10  1  0  0  0  0
  9 11  1  0  0  0  0
 11  1  2  0  0  0  0
 11 12  1  0  0  0  0
 12 13  2  0  0  0  0
 12 14  1  0  0  0  0
 14 15  1  0  0  0  0
M  END
> <ChemID>
101501

> <source_casrn>
586-76-5

> <CAS>
586-76-5

> <SMILES>
OC(=O)c1ccc(Br)cc1

> <NAME>
P-BROMOBENZOIC ACID

> <preferred_name>
4-Bromobenzoic acid

> <iupac>
4-Bromobenzoic acid

> <MPID>
26111

> <dsstox_substance_id>
DTXSID7060413

> <Canonical_QSARr>
OC(=O)c1ccc(Br)cc1

> <InChI_Code_QSARr>
InChI=1S/C7H5BrO2/c8-6-3-1-5(2-4-6)7(9)10/h1-4H,(H,9,10)

> <InChI Key_QSARr>
TUXYZHVUPGXXQG-UHFFFAOYSA-N

> <Salt_Solvent>
?

> <LogVP>
-5.0021

$$$$
101505
  -INDIGO-08031723152D

 26 25  0  0  0  0  0  0  0  0999 V2000
   -1.3857   -0.8000    0.0000 C   0  0  0  0  0  0  0  0  0  0  0  0
   -0.7734   -2.2782    0.0000 H   0  0  0  0  0  0  0  0  0  0  0  0
   -1.9979   -2.2782    0.0000 H   0  0  0  0  0  0  0  0  0  0  0  0
   -0.0001    0.0000    0.0000 C   0  0  0  0  0  0  0  0  0  0  0  0
    0.8000   -1.3856    0.0000 H   0  0  0  0  0  0  0  0  0  0  0  0
    1.5035    0.5472    0.0000 C   0  0  0  0  0  0  0  0  0  0  0  0
    1.1573    2.1093    0.0000 H   0  0  0  0  0  0  0  0  0  0  0  0
    2.3632    1.8966    0.0000 H   0  0  0  0  0  0  0  0  0  0  0  0
    2.7292   -0.4812    0.0000 C   0  0  0  0  0  0  0  0  0  0  0  0
    1.9292   -1.8669    0.0000 H   0  0  0  0  0  0  0  0  0  0  0  0
    3.9549   -1.5097    0.0000 C   0  0  0  0  0  0  0  0  0  0  0  0
    5.1805   -2.5382    0.0000 H   0  0  0  0  0  0  0  0  0  0  0  0
    5.4584   -0.9625    0.0000 H   0  0  0  0  0  0  0  0  0  0  0  0
    3.6770   -3.0854    0.0000 H   0  0  0  0  0  0  0  0  0  0  0  0
    3.7576    0.7444    0.0000 C   0  0  0  0  0  0  0  0  0  0  0  0
    4.7861    1.9701    0.0000 H   0  0  0  0  0  0  0  0  0  0  0  0
    3.4798    2.3202    0.0000 H   0  0  0  0  0  0  0  0  0  0  0  0
    5.3334    0.4666    0.0000 H   0  0  0  0  0  0  0  0  0  0  0  0
   -0.8000    1.3856    0.0000 C   0  0  0  0  0  0  0  0  0  0  0  0
   -1.6000    2.7713    0.0000 H   0  0  0  0  0  0  0  0  0  0  0  0
   -0.0001    2.7713    0.0000 H   0  0  0  0  0  0  0  0  0  0  0  0
   -2.4000    1.3856    0.0000 H   0  0  0  0  0  0  0  0  0  0  0  0
   -2.7713    0.0000    0.0000 C   0  0  0  0  0  0  0  0  0  0  0  0
   -4.1569   -0.8000    0.0000 H   0  0  0  0  0  0  0  0  0  0  0  0
   -4.1569    0.8000    0.0000 H   0  0  0  0  0  0  0  0  0  0  0  0
   -2.7713   -1.6000    0.0000 H   0  0  0  0  0  0  0  0  0  0  0  0
  1  2  1  0  0  0  0
  1  3  1  0  0  0  0
  1  4  1  0  0  0  0
  4  5  1  0  0  0  0
  4  6  1  0  0  0  0
  6  7  1  0  0  0  0
  6  8  1  0  0  0  0
  6  9  1  0  0  0  0
  9 10  1  0  0  0  0
  9 11  1  0  0  0  0
 11 12  1  0  0  0  0
 11 13  1  0  0  0  0
 11 14  1  0  0  0  0
  9 15  1  0  0  0  0
 15 16  1  0  0  0  0
 15 17  1  0  0  0  0
 15 18  1  0  0  0  0
  4 19  1  0  0  0  0
 19 20  1  0  0  0  0
 19 21  1  0  0  0  0
 19 22  1  0  0  0  0
  1 23  1  0  0  0  0
 23 24  1  0  0  0  0
 23 25  1  0  0  0  0
 23 26  1  0  0  0  0
M  END
> <ChemID>
101505

> <source_casrn>
589-43-5

> <CAS>
589-43-5

> <SMILES>
CC(C)CC(C)CC

> <NAME>
2,4-DIMETHYLHEXANE

> <preferred_name>
Alkanes, C7-10-iso-

> <iupac>
2,4-dimethylhexane

> <MPID>
26115

> <dsstox_substance_id>
DTXSID60873237

> <Canonical_QSARr>
CC(C)CC(C)CC

> <InChI_Code_QSARr>
InChI=1S/C8H18/c1-5-8(4)6-7(2)3/h7-8H,5-6H2,1-4H3

> <InChI Key_QSARr>
HDGQICNBXPAKLR-UHFFFAOYSA-N

> <Salt_Solvent>
?

> <LogVP>
1.4829

$$$$
101509
  -INDIGO-08031723152D

 27 26  0  0  0  0  0  0  0  0999 V2000
   -0.7999    1.3857    0.0000 O   0  0  0  0  0  0  0  0  0  0  0  0
   -0.2528    2.8891    0.0000 H   0  0  0  0  0  0  0  0  0  0  0  0
    0.0001    0.0000    0.0000 C   0  0  0  0  0  0  0  0  0  0  0  0
    0.8000   -1.3857    0.0000 H   0  0  0  0  0  0  0  0  0  0  0  0
    1.3856    0.8000    0.0000 C   0  0  0  0  0  0  0  0  0  0  0  0
    0.7734    2.2782    0.0000 H   0  0  0  0  0  0  0  0  0  0  0  0
    1.9979    2.2782    0.0000 H   0  0  0  0  0  0  0  0  0  0  0  0
    2.7713    0.0000    0.0000 C   0  0  0  0  0  0  0  0  0  0  0  0
    3.3836   -1.4782    0.0000 H   0  0  0  0  0  0  0  0  0  0  0  0
    2.1589   -1.4782    0.0000 H   0  0  0  0  0  0  0  0  0  0  0  0
    4.1570    0.8000    0.0000 C   0  0  0  0  0  0  0  0  0  0  0  0
    3.5446    2.2782    0.0000 H   0  0  0  0  0  0  0  0  0  0  0  0
    4.7692    2.2782    0.0000 H   0  0  0  0  0  0  0  0  0  0  0  0
    5.5425    0.0000    0.0000 C   0  0  0  0  0  0  0  0  0  0  0  0
    6.9282   -0.8000    0.0000 H   0  0  0  0  0  0  0  0  0  0  0  0
    6.9282    0.8000    0.0000 H   0  0  0  0  0  0  0  0  0  0  0  0
    5.5425   -1.6000    0.0000 H   0  0  0  0  0  0  0  0  0  0  0  0
   -1.3856   -0.8000    0.0000 C   0  0  0  0  0  0  0  0  0  0  0  0
   -0.7733   -2.2782    0.0000 H   0  0  0  0  0  0  0  0  0  0  0  0
   -1.9980   -2.2782    0.0000 H   0  0  0  0  0  0  0  0  0  0  0  0
   -2.7713    0.0000    0.0000 C   0  0  0  0  0  0  0  0  0  0  0  0
   -3.3835    1.4782    0.0000 H   0  0  0  0  0  0  0  0  0  0  0  0
   -2.1590    1.4782    0.0000 H   0  0  0  0  0  0  0  0  0  0  0  0
   -4.1569   -0.8000    0.0000 C   0  0  0  0  0  0  0  0  0  0  0  0
   -5.5426   -1.6000    0.0000 H   0  0  0  0  0  0  0  0  0  0  0  0
   -5.5426    0.0000    0.0000 H   0  0  0  0  0  0  0  0  0  0  0  0
   -4.1569   -2.4000    0.0000 H   0  0  0  0  0  0  0  0  0  0  0  0
  1  2  1  0  0  0  0
  1  3  1  0  0  0  0
  3  4  1  0  0  0  0
  3  5  1  0  0  0  0
  5  6  1  0  0  0  0
  5  7  1  0  0  0  0
  5  8  1  0  0  0  0
  8  9  1  0  0  0  0
  8 10  1  0  0  0  0
  8 11  1  0  0  0  0
 11 12  1  0  0  0  0
 11 13  1  0  0  0  0
 11 14  1  0  0  0  0
 14 15  1  0  0  0  0
 14 16  1  0  0  0  0
 14 17  1  0  0  0  0
  3 18  1  0  0  0  0
 18 19  1  0  0  0  0
 18 20  1  0  0  0  0
 18 21  1  0  0  0  0
 21 22  1  0  0  0  0
 21 23  1  0  0  0  0
 21 24  1  0  0  0  0
 24 25  1  0  0  0  0
 24 26  1  0  0  0  0
 24 27  1  0  0  0  0
M  END
> <ChemID>
101509

> <source_casrn>
589-62-8

> <CAS>
90365-63-2

> <SMILES>
CCC[C@H](O)CCCC

> <NAME>
4-OCTANOL

> <preferred_name>
PUBCHEM_12346038

> <iupac>
C8H18O

> <MPID>
26119

> <dsstox_substance_id>
DTXSID10492750

> <Canonical_QSARr>
CCCC(O)CCCC

> <InChI_Code_QSARr>
InChI=1S/C8H18O/c1-3-5-7-8(9)6-4-2/h8-9H,3-7H2,1-2H3

> <InChI Key_QSARr>
WOFPPJOZXUTRAU-UHFFFAOYSA-N

> <Salt_Solvent>
?

> <LogVP>
-0.5072

$$$$
101513
  -INDIGO-08031723152D

 20 20  0  0  0  0  0  0  0  0999 V2000
   -0.0000   -0.0000    0.0000 C   0  0  0  0  0  0  0  0  0  0  0  0
    0.5472   -1.5035    0.0000 H   0  0  0  0  0  0  0  0  0  0  0  0
   -0.0000    1.6000    0.0000 C   0  0  0  0  0  0  0  0  0  0  0  0
    1.5757    1.3222    0.0000 H   0  0  0  0  0  0  0  0  0  0  0  0
    0.5472    3.1035    0.0000 H   0  0  0  0  0  0  0  0  0  0  0  0
   -1.3856    2.4000    0.0000 C   0  0  0  0  0  0  0  0  0  0  0  0
   -0.3572    3.6257    0.0000 H   0  0  0  0  0  0  0  0  0  0  0  0
   -2.4141    3.6257    0.0000 H   0  0  0  0  0  0  0  0  0  0  0  0
   -2.7713    1.6000    0.0000 C   0  0  0  0  0  0  0  0  0  0  0  0
   -4.1569    2.4000    0.0000 O   0  0  0  0  0  0  0  0  0  0  0  0
   -2.7713   -0.0000    0.0000 C   0  0  0  0  0  0  0  0  0  0  0  0
   -4.3470    0.2778    0.0000 H   0  0  0  0  0  0  0  0  0  0  0  0
   -3.3185   -1.5035    0.0000 H   0  0  0  0  0  0  0  0  0  0  0  0
   -1.3856   -0.8000    0.0000 C   0  0  0  0  0  0  0  0  0  0  0  0
   -2.4141   -2.0257    0.0000 H   0  0  0  0  0  0  0  0  0  0  0  0
   -0.3572   -2.0257    0.0000 H   0  0  0  0  0  0  0  0  0  0  0  0
    1.5757   -0.2778    0.0000 C   0  0  0  0  0  0  0  0  0  0  0  0
    3.1514   -0.5556    0.0000 H   0  0  0  0  0  0  0  0  0  0  0  0
    2.1229   -1.7814    0.0000 H   0  0  0  0  0  0  0  0  0  0  0  0
    2.6041    0.9478    0.0000 H   0  0  0  0  0  0  0  0  0  0  0  0
  1  2  1  0  0  0  0
  1  3  1  0  0  0  0
  3  4  1  0  0  0  0
  3  5  1  0  0  0  0
  3  6  1  0  0  0  0
  6  7  1  0  0  0  0
  6  8  1  0  0  0  0
  6  9  1  0  0  0  0
  9 10  2  0  0  0  0
  9 11  1  0  0  0  0
 11 12  1  0  0  0  0
 11 13  1  0  0  0  0
 11 14  1  0  0  0  0
 14  1  1  0  0  0  0
 14 15  1  0  0  0  0
 14 16  1  0  0  0  0
  1 17  1  0  0  0  0
 17 18  1  0  0  0  0
 17 19  1  0  0  0  0
 17 20  1  0  0  0  0
M  END
> <ChemID>
101513

> <source_casrn>
589-92-4

> <CAS>
589-92-4

> <SMILES>
CC1CCC(=O)CC1

> <NAME>
4-METHYLCYCLOHEXANONE

> <preferred_name>
Cyclohexanone, 4-methyl-

> <iupac>
4-methylcyclohexan-1-one

> <MPID>
26123

> <dsstox_substance_id>
DTXSID5060435

> <Canonical_QSARr>
CC1CCC(=O)CC1

> <InChI_Code_QSARr>
InChI=1S/C7H12O/c1-6-2-4-7(8)5-3-6/h6H,2-5H2,1H3

> <InChI Key_QSARr>
VGVHNLRUAMRIEW-UHFFFAOYSA-N

> <Salt_Solvent>
?

> <LogVP>
0.1761

$$$$
101518
  -INDIGO-08031723152D

 10  9  0  0  0  0  0  0  0  0999 V2000
    4.0000   -1.3856    0.0000 C   0  0  0  0  0  0  0  0  0  0  0  0
    4.8000   -2.7713    0.0000 H   0  0  0  0  0  0  0  0  0  0  0  0
    4.8000    0.0000    0.0000 H   0  0  0  0  0  0  0  0  0  0  0  0
    2.4000   -1.3856    0.0000 C   0  0  0  0  0  0  0  0  0  0  0  0
    0.8000   -1.3856    0.0000 C   0  0  0  0  0  0  0  0  0  0  0  0
    0.0000   -2.7713    0.0000 H   0  0  0  0  0  0  0  0  0  0  0  0
    0.0000    0.0000    0.0000 C   0  0  0  0  0  0  0  0  0  0  0  0
   -0.8000    1.3856    0.0000 H   0  0  0  0  0  0  0  0  0  0  0  0
    0.8000    1.3856    0.0000 H   0  0  0  0  0  0  0  0  0  0  0  0
   -1.6000    0.0000    0.0000 H   0  0  0  0  0  0  0  0  0  0  0  0
  1  2  1  0  0  0  0
  1  3  1  0  0  0  0
  1  4  2  0  0  0  0
  4  5  2  0  0  0  0
  5  6  1  0  0  0  0
  5  7  1  0  0  0  0
  7  8  1  0  0  0  0
  7  9  1  0  0  0  0
  7 10  1  0  0  0  0
M  END
> <ChemID>
101518

> <source_casrn>
590-19-2

> <CAS>
590-19-2

> <SMILES>
CC=C=C

> <NAME>
1,2-BUTADIENE

> <preferred_name>
1,2-Butadiene

> <iupac>
buta-1,2-diene

> <MPID>
26127

> <dsstox_substance_id>
DTXSID5027225

> <Canonical_QSARr>
CC=C=C

> <InChI_Code_QSARr>
InChI=1S/C4H6/c1-3-4-2/h4H,1H2,2H3

> <InChI Key_QSARr>
QNRMTGGDHLBXQZ-UHFFFAOYSA-N

> <Salt_Solvent>
?

> <LogVP>
3.0997

$$$$
101524
  -INDIGO-08031723152D

 24 24  0  0  0  0  0  0  0  0999 V2000
    0.0000   -0.0000    0.0000 C   0  0  0  0  0  0  0  0  0  0  0  0
   -0.8000    1.3857    0.0000 C   0  0  0  0  0  0  0  0  0  0  0  0
    0.7035    1.9329    0.0000 H   0  0  0  0  0  0  0  0  0  0  0  0
   -1.0778    2.9613    0.0000 H   0  0  0  0  0  0  0  0  0  0  0  0
   -2.4000    1.3857    0.0000 C   0  0  0  0  0  0  0  0  0  0  0  0
   -2.1222    2.9613    0.0000 H   0  0  0  0  0  0  0  0  0  0  0  0
   -3.9035    1.9329    0.0000 H   0  0  0  0  0  0  0  0  0  0  0  0
   -3.2000   -0.0000    0.0000 C   0  0  0  0  0  0  0  0  0  0  0  0
   -4.4257    1.0285    0.0000 H   0  0  0  0  0  0  0  0  0  0  0  0
   -4.4257   -1.0285    0.0000 H   0  0  0  0  0  0  0  0  0  0  0  0
   -2.4000   -1.3857    0.0000 C   0  0  0  0  0  0  0  0  0  0  0  0
   -3.9035   -1.9329    0.0000 H   0  0  0  0  0  0  0  0  0  0  0  0
   -2.1222   -2.9613    0.0000 H   0  0  0  0  0  0  0  0  0  0  0  0
   -0.8000   -1.3857    0.0000 C   0  0  0  0  0  0  0  0  0  0  0  0
   -1.0778   -2.9613    0.0000 H   0  0  0  0  0  0  0  0  0  0  0  0
    0.7035   -1.9329    0.0000 H   0  0  0  0  0  0  0  0  0  0  0  0
    1.2257   -1.0285    0.0000 C   0  0  0  0  0  0  0  0  0  0  0  0
    2.4513   -2.0570    0.0000 H   0  0  0  0  0  0  0  0  0  0  0  0
    2.7292   -0.4812    0.0000 H   0  0  0  0  0  0  0  0  0  0  0  0
    1.5035   -2.6042    0.0000 H   0  0  0  0  0  0  0  0  0  0  0  0
    1.2257    1.0285    0.0000 C   0  0  0  0  0  0  0  0  0  0  0  0
    2.4513    2.0570    0.0000 H   0  0  0  0  0  0  0  0  0  0  0  0
    2.7292    0.4812    0.0000 H   0  0  0  0  0  0  0  0  0  0  0  0
    1.5035    2.6042    0.0000 H   0  0  0  0  0  0  0  0  0  0  0  0
  1  2  1  0  0  0  0
  2  3  1  0  0  0  0
  2  4  1  0  0  0  0
  2  5  1  0  0  0  0
  5  6  1  0  0  0  0
  5  7  1  0  0  0  0
  5  8  1  0  0  0  0
  8  9  1  0  0  0  0
  8 10  1  0  0  0  0
  8 11  1  0  0  0  0
 11 12  1  0  0  0  0
 11 13  1  0  0  0  0
 11 14  1  0  0  0  0
 14  1  1  0  0  0  0
 14 15  1  0  0  0  0
 14 16  1  0  0  0  0
  1 17  1  0  0  0  0
 17 18  1  0  0  0  0
 17 19  1  0  0  0  0
 17 20  1  0  0  0  0
  1 21  1  0  0  0  0
 21 22  1  0  0  0  0
 21 23  1  0  0  0  0
 21 24  1  0  0  0  0
M  END
> <ChemID>
101524

> <source_casrn>
590-66-9

> <CAS>
590-66-9

> <SMILES>
CC1(C)CCCCC1

> <NAME>
1,1-DIMETHYL CYCLOHEXANE

> <preferred_name>
1,1-Dimethylcyclohexane

> <iupac>
1,1-Dimethylcyclohexane

> <MPID>
26131

> <dsstox_substance_id>
DTXSID1074832

> <Canonical_QSARr>
CC1(C)CCCCC1

> <InChI_Code_QSARr>
InChI=1S/C8H16/c1-8(2)6-4-3-5-7-8/h3-7H2,1-2H3

> <InChI Key_QSARr>
QEGNUYASOUJEHD-UHFFFAOYSA-N

> <Salt_Solvent>
?

> <LogVP>
1.356

$$$$
101528
  -INDIGO-08031723152D

 15 15  0  0  0  0  0  0  0  0999 V2000
    0.0000   -0.0000    0.0000 C   0  0  0  0  0  0  0  0  0  0  0  0
   -0.8001    1.3856    0.0000 C   0  0  0  0  0  0  0  0  0  0  0  0
    0.0000    2.7713    0.0000 H   0  0  0  0  0  0  0  0  0  0  0  0
   -2.4001    1.3856    0.0000 C   0  0  0  0  0  0  0  0  0  0  0  0
   -3.2000    2.7713    0.0000 H   0  0  0  0  0  0  0  0  0  0  0  0
   -3.2000   -0.0000    0.0000 C   0  0  0  0  0  0  0  0  0  0  0  0
   -4.8000   -0.0000    0.0000 H   0  0  0  0  0  0  0  0  0  0  0  0
   -2.4001   -1.3856    0.0000 C   0  0  0  0  0  0  0  0  0  0  0  0
   -3.2000   -2.7713    0.0000 Br  0  0  0  0  0  0  0  0  0  0  0  0
   -0.8001   -1.3856    0.0000 C   0  0  0  0  0  0  0  0  0  0  0  0
    0.0000   -2.7713    0.0000 H   0  0  0  0  0  0  0  0  0  0  0  0
    1.6000   -0.0000    0.0000 C   0  0  0  0  0  0  0  0  0  0  0  0
    3.2000   -0.0000    0.0000 H   0  0  0  0  0  0  0  0  0  0  0  0
    2.4001   -1.3856    0.0000 H   0  0  0  0  0  0  0  0  0  0  0  0
    2.4001    1.3856    0.0000 H   0  0  0  0  0  0  0  0  0  0  0  0
  1  2  1  0  0  0  0
  2  3  1  0  0  0  0
  2  4  2  0  0  0  0
  4  5  1  0  0  0  0
  4  6  1  0  0  0  0
  6  7  1  0  0  0  0
  6  8  2  0  0  0  0
  8  9  1  0  0  0  0
  8 10  1  0  0  0  0
 10  1  2  0  0  0  0
 10 11  1  0  0  0  0
  1 12  1  0  0  0  0
 12 13  1  0  0  0  0
 12 14  1  0  0  0  0
 12 15  1  0  0  0  0
M  END
> <ChemID>
101528

> <source_casrn>
591-17-3

> <CAS>
591-17-3

> <SMILES>
Cc1cc(Br)ccc1

> <NAME>
M-BROMOTOLUENE

> <preferred_name>
3-Bromotoluene

> <iupac>
1-bromo-3-methylbenzene

> <MPID>
26135

> <dsstox_substance_id>
DTXSID3024659

> <Canonical_QSARr>
Cc1cc(Br)ccc1

> <InChI_Code_QSARr>
InChI=1S/C7H7Br/c1-6-3-2-4-7(8)5-6/h2-5H,1H3

> <InChI Key_QSARr>
WJIFKOVZNJTSGO-UHFFFAOYSA-N

> <Salt_Solvent>
?

> <LogVP>
0.1847

$$$$
101532
  -INDIGO-08031723152D

 20 20  0  0  0  0  0  0  0  0999 V2000
   -2.4000    1.3857    0.0000 C   0  0  0  0  0  0  0  0  0  0  0  0
   -0.8000    1.3857    0.0000 C   0  0  0  0  0  0  0  0  0  0  0  0
   -1.0779    2.9613    0.0000 H   0  0  0  0  0  0  0  0  0  0  0  0
    0.7035    1.9329    0.0000 H   0  0  0  0  0  0  0  0  0  0  0  0
    0.0000    0.0000    0.0000 C   0  0  0  0  0  0  0  0  0  0  0  0
    1.2257   -1.0285    0.0000 H   0  0  0  0  0  0  0  0  0  0  0  0
    1.5035    0.5473    0.0000 C   0  0  0  0  0  0  0  0  0  0  0  0
    3.0070    1.0945    0.0000 H   0  0  0  0  0  0  0  0  0  0  0  0
    2.7291   -0.4812    0.0000 H   0  0  0  0  0  0  0  0  0  0  0  0
    1.7813    2.1229    0.0000 H   0  0  0  0  0  0  0  0  0  0  0  0
   -0.8000   -1.3857    0.0000 C   0  0  0  0  0  0  0  0  0  0  0  0
    0.7035   -1.9329    0.0000 H   0  0  0  0  0  0  0  0  0  0  0  0
   -1.0779   -2.9613    0.0000 H   0  0  0  0  0  0  0  0  0  0  0  0
   -2.4000   -1.3857    0.0000 C   0  0  0  0  0  0  0  0  0  0  0  0
   -2.1222   -2.9613    0.0000 H   0  0  0  0  0  0  0  0  0  0  0  0
   -3.9035   -1.9329    0.0000 H   0  0  0  0  0  0  0  0  0  0  0  0
   -3.2000   -0.0000    0.0000 C   0  0  0  0  0  0  0  0  0  0  0  0
   -4.4257   -1.0285    0.0000 H   0  0  0  0  0  0  0  0  0  0  0  0
   -4.4257    1.0285    0.0000 H   0  0  0  0  0  0  0  0  0  0  0  0
   -3.2000    2.7713    0.0000 O   0  0  0  0  0  0  0  0  0  0  0  0
  1  2  1  0  0  0  0
  2  3  1  0  0  0  0
  2  4  1  0  0  0  0
  2  5  1  0  0  0  0
  5  6  1  0  0  0  0
  5  7  1  0  0  0  0
  7  8  1  0  0  0  0
  7  9  1  0  0  0  0
  7 10  1  0  0  0  0
  5 11  1  0  0  0  0
 11 12  1  0  0  0  0
 11 13  1  0  0  0  0
 11 14  1  0  0  0  0
 14 15  1  0  0  0  0
 14 16  1  0  0  0  0
 14 17  1  0  0  0  0
 17  1  1  0  0  0  0
 17 18  1  0  0  0  0
 17 19  1  0  0  0  0
  1 20  2  0  0  0  0
M  END
> <ChemID>
101532

> <source_casrn>
591-24-2

> <CAS>
NOCAS_862256

> <SMILES>
CC1CC(=O)CCC1

> <NAME>
3-METHYLCYCLOHEXANONE

> <preferred_name>


> <iupac>


> <MPID>
26139

> <dsstox_substance_id>
DTXSID50862256

> <Canonical_QSARr>
CC1CC(=O)CCC1

> <InChI_Code_QSARr>
InChI=1S/C7H12O/c1-6-3-2-4-7(8)5-6/h6H,2-5H2,1H3

> <InChI Key_QSARr>
UJBOOUHRTQVGRU-UHFFFAOYSA-N

> <Salt_Solvent>
?

> <LogVP>
0.1761

$$$$
101536
  -INDIGO-08031723152D

 12 12  0  0  0  0  0  0  0  0999 V2000
   -0.0000   -0.0000    0.0000 C   0  0  0  0  0  0  0  0  0  0  0  0
    0.8000   -1.3857    0.0000 C   0  0  0  0  0  0  0  0  0  0  0  0
    2.4000   -1.3857    0.0000 H   0  0  0  0  0  0  0  0  0  0  0  0
   -0.0000   -2.7713    0.0000 C   0  0  0  0  0  0  0  0  0  0  0  0
    0.8000   -4.1569    0.0000 H   0  0  0  0  0  0  0  0  0  0  0  0
   -1.6000   -2.7713    0.0000 C   0  0  0  0  0  0  0  0  0  0  0  0
   -2.4000   -4.1569    0.0000 H   0  0  0  0  0  0  0  0  0  0  0  0
   -2.4000   -1.3856    0.0000 C   0  0  0  0  0  0  0  0  0  0  0  0
   -4.0000   -1.3856    0.0000 H   0  0  0  0  0  0  0  0  0  0  0  0
   -1.6000   -0.0000    0.0000 C   0  0  0  0  0  0  0  0  0  0  0  0
   -2.4000    1.3856    0.0000 H   0  0  0  0  0  0  0  0  0  0  0  0
    0.8000    1.3856    0.0000 I   0  0  0  0  0  0  0  0  0  0  0  0
  1  2  1  0  0  0  0
  2  3  1  0  0  0  0
  2  4  2  0  0  0  0
  4  5  1  0  0  0  0
  4  6  1  0  0  0  0
  6  7  1  0  0  0  0
  6  8  2  0  0  0  0
  8  9  1  0  0  0  0
  8 10  1  0  0  0  0
 10  1  2  0  0  0  0
 10 11  1  0  0  0  0
  1 12  1  0  0  0  0
M  END
> <ChemID>
101536

> <source_casrn>
591-50-4

> <CAS>
591-50-4

> <SMILES>
Ic1ccccc1

> <NAME>
IODOBENZENE

> <preferred_name>
Benzene, iodo-

> <iupac>
Iodobenzene

> <MPID>
26143

> <dsstox_substance_id>
DTXSID8060452

> <Canonical_QSARr>
Ic1ccccc1

> <InChI_Code_QSARr>
InChI=1S/C6H5I/c7-6-4-2-1-3-5-6/h1-5H

> <InChI Key_QSARr>
SNHMUERNLJLMHN-UHFFFAOYSA-N

> <Salt_Solvent>
?

> <LogVP>
0.0253

$$$$
101540
  -INDIGO-08031723152D

 13 12  0  0  0  0  0  0  0  0999 V2000
    0.0001    0.0000    0.0000 C   0  0  0  0  0  0  0  0  0  0  0  0
    0.6123   -1.4782    0.0000 H   0  0  0  0  0  0  0  0  0  0  0  0
   -0.6123   -1.4782    0.0000 H   0  0  0  0  0  0  0  0  0  0  0  0
   -1.3856    0.8000    0.0000 C   0  0  0  0  0  0  0  0  0  0  0  0
   -1.3856    2.4000    0.0000 H   0  0  0  0  0  0  0  0  0  0  0  0
   -2.7713    0.0000    0.0000 C   0  0  0  0  0  0  0  0  0  0  0  0
   -4.1569    0.8000    0.0000 H   0  0  0  0  0  0  0  0  0  0  0  0
   -2.7712   -1.6000    0.0000 H   0  0  0  0  0  0  0  0  0  0  0  0
    1.3856    0.8000    0.0000 C   0  0  0  0  0  0  0  0  0  0  0  0
    1.3856    2.4000    0.0000 H   0  0  0  0  0  0  0  0  0  0  0  0
    2.7713    0.0000    0.0000 C   0  0  0  0  0  0  0  0  0  0  0  0
    4.1569    0.8000    0.0000 H   0  0  0  0  0  0  0  0  0  0  0  0
    2.7713   -1.6000    0.0000 H   0  0  0  0  0  0  0  0  0  0  0  0
  1  2  1  0  0  0  0
  1  3  1  0  0  0  0
  1  4  1  0  0  0  0
  4  5  1  0  0  0  0
  4  6  2  0  0  0  0
  6  7  1  0  0  0  0
  6  8  1  0  0  0  0
  1  9  1  0  0  0  0
  9 10  1  0  0  0  0
  9 11  2  0  0  0  0
 11 12  1  0  0  0  0
 11 13  1  0  0  0  0
M  END
> <ChemID>
101540

> <source_casrn>
591-93-5

> <CAS>
591-93-5

> <SMILES>
C=CCC=C

> <NAME>
1,4-PENTADIENE

> <preferred_name>
1,4-Pentadiene

> <iupac>
Penta-1,4-diene

> <MPID>
26147

> <dsstox_substance_id>
DTXSID8060456

> <Canonical_QSARr>
C=CCC=C

> <InChI_Code_QSARr>
InChI=1S/C5H8/c1-3-5-4-2/h3-4H,1-2,5H2

> <InChI Key_QSARr>
QYZLKGVUSQXAMU-UHFFFAOYSA-N

> <Salt_Solvent>
?

> <LogVP>
2.8738

$$$$
101544
  -INDIGO-08031723152D

 26 25  0  0  0  0  0  0  0  0999 V2000
   -1.5036    0.5473    0.0000 C   0  0  0  0  0  0  0  0  0  0  0  0
   -1.1572    2.1093    0.0000 H   0  0  0  0  0  0  0  0  0  0  0  0
   -2.3633    1.8967    0.0000 H   0  0  0  0  0  0  0  0  0  0  0  0
   -2.7292   -0.4812    0.0000 C   0  0  0  0  0  0  0  0  0  0  0  0
   -3.0755   -2.0433    0.0000 H   0  0  0  0  0  0  0  0  0  0  0  0
   -1.8695   -1.8306    0.0000 H   0  0  0  0  0  0  0  0  0  0  0  0
   -4.2327    0.0660    0.0000 C   0  0  0  0  0  0  0  0  0  0  0  0
   -3.8864    1.6281    0.0000 H   0  0  0  0  0  0  0  0  0  0  0  0
   -5.0924    1.4155    0.0000 H   0  0  0  0  0  0  0  0  0  0  0  0
   -5.4583   -0.9625    0.0000 C   0  0  0  0  0  0  0  0  0  0  0  0
   -5.8047   -2.5245    0.0000 H   0  0  0  0  0  0  0  0  0  0  0  0
   -4.5986   -2.3119    0.0000 H   0  0  0  0  0  0  0  0  0  0  0  0
   -6.9618   -0.4153    0.0000 C   0  0  0  0  0  0  0  0  0  0  0  0
   -8.4654    0.1320    0.0000 H   0  0  0  0  0  0  0  0  0  0  0  0
   -8.1876   -1.4437    0.0000 H   0  0  0  0  0  0  0  0  0  0  0  0
   -7.2398    1.1604    0.0000 H   0  0  0  0  0  0  0  0  0  0  0  0
   -0.0000    0.0000    0.0000 C   0  0  0  0  0  0  0  0  0  0  0  0
   -0.8001   -1.3856    0.0000 H   0  0  0  0  0  0  0  0  0  0  0  0
    1.3857   -0.8000    0.0000 C   0  0  0  0  0  0  0  0  0  0  0  0
    2.7713   -1.6000    0.0000 H   0  0  0  0  0  0  0  0  0  0  0  0
    1.3857   -2.4000    0.0000 H   0  0  0  0  0  0  0  0  0  0  0  0
    2.7713    0.0000    0.0000 H   0  0  0  0  0  0  0  0  0  0  0  0
    0.8000    1.3857    0.0000 C   0  0  0  0  0  0  0  0  0  0  0  0
    1.6000    2.7713    0.0000 H   0  0  0  0  0  0  0  0  0  0  0  0
   -0.0000    2.7713    0.0000 H   0  0  0  0  0  0  0  0  0  0  0  0
    2.4001    1.3857    0.0000 H   0  0  0  0  0  0  0  0  0  0  0  0
  1  2  1  0  0  0  0
  1  3  1  0  0  0  0
  1  4  1  0  0  0  0
  4  5  1  0  0  0  0
  4  6  1  0  0  0  0
  4  7  1  0  0  0  0
  7  8  1  0  0  0  0
  7  9  1  0  0  0  0
  7 10  1  0  0  0  0
 10 11  1  0  0  0  0
 10 12  1  0  0  0  0
 10 13  1  0  0  0  0
 13 14  1  0  0  0  0
 13 15  1  0  0  0  0
 13 16  1  0  0  0  0
  1 17  1  0  0  0  0
 17 18  1  0  0  0  0
 17 19  1  0  0  0  0
 19 20  1  0  0  0  0
 19 21  1  0  0  0  0
 19 22  1  0  0  0  0
 17 23  1  0  0  0  0
 23 24  1  0  0  0  0
 23 25  1  0  0  0  0
 23 26  1  0  0  0  0
M  END
> <ChemID>
101544

> <source_casrn>
592-27-8

> <CAS>
592-27-8

> <SMILES>
CCCCCC(C)C

> <NAME>
2-METHYLHEPTANE

> <preferred_name>
2-Methylheptane

> <iupac>
2-Methylheptane

> <MPID>
26151

> <dsstox_substance_id>
DTXSID2060460

> <Canonical_QSARr>
CCCCCC(C)C

> <InChI_Code_QSARr>
InChI=1S/C8H18/c1-4-5-6-7-8(2)3/h8H,4-7H2,1-3H3

> <InChI Key_QSARr>
JVSWJIKNEAIKJW-UHFFFAOYSA-N

> <Salt_Solvent>
?

> <LogVP>
1.316

$$$$
101549
  -INDIGO-08031723152D

 16 15  0  0  0  0  0  0  0  0999 V2000
    2.7713    0.0000    0.0000 C   0  0  0  0  0  0  0  0  0  0  0  0
    4.1569    0.8000    0.0000 H   0  0  0  0  0  0  0  0  0  0  0  0
    2.7713   -1.6000    0.0000 H   0  0  0  0  0  0  0  0  0  0  0  0
    1.3857    0.8000    0.0000 C   0  0  0  0  0  0  0  0  0  0  0  0
    1.3857    2.4000    0.0000 H   0  0  0  0  0  0  0  0  0  0  0  0
    0.0001    0.0000    0.0000 C   0  0  0  0  0  0  0  0  0  0  0  0
   -0.6122   -1.4782    0.0000 H   0  0  0  0  0  0  0  0  0  0  0  0
    0.6124   -1.4782    0.0000 H   0  0  0  0  0  0  0  0  0  0  0  0
   -1.3857    0.8000    0.0000 C   0  0  0  0  0  0  0  0  0  0  0  0
   -1.3857    2.4000    0.0000 H   0  0  0  0  0  0  0  0  0  0  0  0
   -2.7713    0.0000    0.0000 C   0  0  0  0  0  0  0  0  0  0  0  0
   -2.7713   -1.6000    0.0000 H   0  0  0  0  0  0  0  0  0  0  0  0
   -4.1569    0.8000    0.0000 C   0  0  0  0  0  0  0  0  0  0  0  0
   -5.5426    1.6000    0.0000 H   0  0  0  0  0  0  0  0  0  0  0  0
   -5.5426    0.0000    0.0000 H   0  0  0  0  0  0  0  0  0  0  0  0
   -4.1569    2.4000    0.0000 H   0  0  0  0  0  0  0  0  0  0  0  0
  1  2  1  0  0  0  0
  1  3  1  0  0  0  0
  1  4  2  0  0  0  0
  4  5  1  0  0  0  0
  4  6  1  0  0  0  0
  6  7  1  0  0  0  0
  6  8  1  0  0  0  0
  6  9  1  0  0  0  0
  9 10  1  0  0  0  0
  9 11  2  0  0  0  0
 11 12  1  0  0  0  0
 11 13  1  0  0  0  0
 13 14  1  0  0  0  0
 13 15  1  0  0  0  0
 13 16  1  0  0  0  0
M  END
> <ChemID>
101549

> <source_casrn>
592-45-0

> <CAS>
592-45-0

> <SMILES>
C/C=C/CC=C

> <NAME>
1,4-Hexadiene

> <preferred_name>
1,4-Hexadiene

> <iupac>
C6H10

> <MPID>
26155

> <dsstox_substance_id>
DTXSID5027227

> <Canonical_QSARr>
CC=CCC=C

> <InChI_Code_QSARr>
InChI=1S/C6H10/c1-3-5-6-4-2/h3-4,6H,1,5H2,2H3/b6-4+

> <InChI Key_QSARr>
PRBHEGAFLDMLAL-GQCTYLIASA-N

> <Salt_Solvent>
?

> <LogVP>
2.2363

$$$$
101553
  -INDIGO-08031723152D

 14 14  0  0  0  0  0  0  0  0999 V2000
    1.6000    0.0000    0.0000 C   0  0  0  0  0  0  0  0  0  0  0  0
    2.4000    1.3856    0.0000 H   0  0  0  0  0  0  0  0  0  0  0  0
    2.4000   -1.3857    0.0000 C   0  0  0  0  0  0  0  0  0  0  0  0
    4.0000   -1.3857    0.0000 H   0  0  0  0  0  0  0  0  0  0  0  0
    1.6000   -2.7712    0.0000 C   0  0  0  0  0  0  0  0  0  0  0  0
    2.4000   -4.1569    0.0000 H   0  0  0  0  0  0  0  0  0  0  0  0
   -0.0000   -2.7712    0.0000 C   0  0  0  0  0  0  0  0  0  0  0  0
   -0.8000   -4.1569    0.0000 H   0  0  0  0  0  0  0  0  0  0  0  0
   -0.8000   -1.3857    0.0000 C   0  0  0  0  0  0  0  0  0  0  0  0
   -2.0257   -2.4141    0.0000 H   0  0  0  0  0  0  0  0  0  0  0  0
   -2.0257   -0.3572    0.0000 H   0  0  0  0  0  0  0  0  0  0  0  0
   -0.0000    0.0000    0.0000 C   0  0  0  0  0  0  0  0  0  0  0  0
   -1.5035    0.5473    0.0000 H   0  0  0  0  0  0  0  0  0  0  0  0
    0.2778    1.5757    0.0000 H   0  0  0  0  0  0  0  0  0  0  0  0
  1  2  1  0  0  0  0
  1  3  2  0  0  0  0
  3  4  1  0  0  0  0
  3  5  1  0  0  0  0
  5  6  1  0  0  0  0
  5  7  2  0  0  0  0
  7  8  1  0  0  0  0
  7  9  1  0  0  0  0
  9 10  1  0  0  0  0
  9 11  1  0  0  0  0
  9 12  1  0  0  0  0
 12  1  1  0  0  0  0
 12 13  1  0  0  0  0
 12 14  1  0  0  0  0
M  END
> <ChemID>
101553

> <source_casrn>
592-57-4

> <CAS>
NOCAS_862259

> <SMILES>
C1CC=CC=C1

> <NAME>
1,3-CYCLOHEXADIENE

> <preferred_name>


> <iupac>


> <MPID>
26159

> <dsstox_substance_id>
DTXSID30862259

> <Canonical_QSARr>
C1CC=CC=C1

> <InChI_Code_QSARr>
InChI=1S/C6H8/c1-2-4-6-5-3-1/h1-4H,5-6H2

> <InChI Key_QSARr>
MGNZXYYWBUKAII-UHFFFAOYSA-N

> <Salt_Solvent>
?

> <LogVP>
1.988

$$$$
101557
  -INDIGO-08031723152D

 17 16  0  0  0  0  0  0  0  0999 V2000
    1.3856    0.8000    0.0000 S   0  0  0  0  0  0  0  0  0  0  0  0
    2.7712    0.0000    0.0000 C   0  0  0  0  0  0  0  0  0  0  0  0
    3.3835   -1.4782    0.0000 H   0  0  0  0  0  0  0  0  0  0  0  0
    2.1591   -1.4782    0.0000 H   0  0  0  0  0  0  0  0  0  0  0  0
    4.1569    0.8000    0.0000 C   0  0  0  0  0  0  0  0  0  0  0  0
    4.1569    2.4000    0.0000 H   0  0  0  0  0  0  0  0  0  0  0  0
    5.5425    0.0000    0.0000 C   0  0  0  0  0  0  0  0  0  0  0  0
    6.9282    0.8000    0.0000 H   0  0  0  0  0  0  0  0  0  0  0  0
    5.5425   -1.6000    0.0000 H   0  0  0  0  0  0  0  0  0  0  0  0
    0.0001    0.0000    0.0000 C   0  0  0  0  0  0  0  0  0  0  0  0
    0.6122   -1.4782    0.0000 H   0  0  0  0  0  0  0  0  0  0  0  0
   -0.6123   -1.4782    0.0000 H   0  0  0  0  0  0  0  0  0  0  0  0
   -1.3856    0.8000    0.0000 C   0  0  0  0  0  0  0  0  0  0  0  0
   -1.3856    2.4000    0.0000 H   0  0  0  0  0  0  0  0  0  0  0  0
   -2.7713    0.0000    0.0000 C   0  0  0  0  0  0  0  0  0  0  0  0
   -4.1569    0.8000    0.0000 H   0  0  0  0  0  0  0  0  0  0  0  0
   -2.7713   -1.6000    0.0000 H   0  0  0  0  0  0  0  0  0  0  0  0
  1  2  1  0  0  0  0
  2  3  1  0  0  0  0
  2  4  1  0  0  0  0
  2  5  1  0  0  0  0
  5  6  1  0  0  0  0
  5  7  2  0  0  0  0
  7  8  1  0  0  0  0
  7  9  1  0  0  0  0
  1 10  1  0  0  0  0
 10 11  1  0  0  0  0
 10 12  1  0  0  0  0
 10 13  1  0  0  0  0
 13 14  1  0  0  0  0
 13 15  2  0  0  0  0
 15 16  1  0  0  0  0
 15 17  1  0  0  0  0
M  END
> <ChemID>
101557

> <source_casrn>
592-88-1

> <CAS>
592-88-1

> <SMILES>
C=CCSCC=C

> <NAME>
DIALLYL SULFIDE

> <preferred_name>
1-Propene, 3,3'-thiobis-

> <iupac>
3-prop-2-enylsulfanylprop-1-ene

> <MPID>
26163

> <dsstox_substance_id>
DTXSID6060470

> <Canonical_QSARr>
C=CCSCC=C

> <InChI_Code_QSARr>
InChI=1S/C6H10S/c1-3-5-7-6-4-2/h3-4H,1-2,5-6H2

> <InChI Key_QSARr>
UBJVUCKUDDKUJF-UHFFFAOYSA-N

> <Salt_Solvent>
?

> <LogVP>
0.9645

$$$$
101561
  -INDIGO-08031723152D

 83 82  0  0  0  0  0  0  0  0999 V2000
   -0.0003    0.0000    0.0000 C   0  0  0  0  0  0  0  0  0  0  0  0
    0.6124    1.4782    0.0000 H   0  0  0  0  0  0  0  0  0  0  0  0
   -0.6124    1.4782    0.0000 H   0  0  0  0  0  0  0  0  0  0  0  0
    1.3856   -0.8000    0.0000 C   0  0  0  0  0  0  0  0  0  0  0  0
    0.7735   -2.2782    0.0000 H   0  0  0  0  0  0  0  0  0  0  0  0
    1.9978   -2.2782    0.0000 H   0  0  0  0  0  0  0  0  0  0  0  0
    2.7715    0.0000    0.0000 C   0  0  0  0  0  0  0  0  0  0  0  0
    3.3837    1.4782    0.0000 H   0  0  0  0  0  0  0  0  0  0  0  0
    2.1588    1.4782    0.0000 H   0  0  0  0  0  0  0  0  0  0  0  0
    4.1569   -0.8000    0.0000 C   0  0  0  0  0  0  0  0  0  0  0  0
    3.5447   -2.2782    0.0000 H   0  0  0  0  0  0  0  0  0  0  0  0
    4.7690   -2.2782    0.0000 H   0  0  0  0  0  0  0  0  0  0  0  0
    5.5428    0.0000    0.0000 C   0  0  0  0  0  0  0  0  0  0  0  0
    6.1549    1.4782    0.0000 H   0  0  0  0  0  0  0  0  0  0  0  0
    4.9300    1.4782    0.0000 H   0  0  0  0  0  0  0  0  0  0  0  0
    6.9281   -0.8000    0.0000 C   0  0  0  0  0  0  0  0  0  0  0  0
    6.3160   -2.2782    0.0000 H   0  0  0  0  0  0  0  0  0  0  0  0
    7.5402   -2.2782    0.0000 H   0  0  0  0  0  0  0  0  0  0  0  0
    8.3140    0.0000    0.0000 C   0  0  0  0  0  0  0  0  0  0  0  0
    8.9262    1.4782    0.0000 H   0  0  0  0  0  0  0  0  0  0  0  0
    7.7013    1.4782    0.0000 H   0  0  0  0  0  0  0  0  0  0  0  0
    9.6993   -0.8000    0.0000 C   0  0  0  0  0  0  0  0  0  0  0  0
    9.0872   -2.2782    0.0000 H   0  0  0  0  0  0  0  0  0  0  0  0
   10.3115   -2.2782    0.0000 H   0  0  0  0  0  0  0  0  0  0  0  0
   11.0853    0.0000    0.0000 C   0  0  0  0  0  0  0  0  0  0  0  0
   11.6974    1.4782    0.0000 H   0  0  0  0  0  0  0  0  0  0  0  0
   10.4731    1.4782    0.0000 H   0  0  0  0  0  0  0  0  0  0  0  0
   12.4706   -0.8000    0.0000 C   0  0  0  0  0  0  0  0  0  0  0  0
   11.8584   -2.2782    0.0000 H   0  0  0  0  0  0  0  0  0  0  0  0
   13.0833   -2.2782    0.0000 H   0  0  0  0  0  0  0  0  0  0  0  0
   13.8565    0.0000    0.0000 C   0  0  0  0  0  0  0  0  0  0  0  0
   14.4686    1.4782    0.0000 H   0  0  0  0  0  0  0  0  0  0  0  0
   13.2443    1.4782    0.0000 H   0  0  0  0  0  0  0  0  0  0  0  0
   15.2418   -0.8000    0.0000 C   0  0  0  0  0  0  0  0  0  0  0  0
   14.6297   -2.2782    0.0000 H   0  0  0  0  0  0  0  0  0  0  0  0
   15.8546   -2.2782    0.0000 H   0  0  0  0  0  0  0  0  0  0  0  0
   16.6277    0.0000    0.0000 C   0  0  0  0  0  0  0  0  0  0  0  0
   17.2399    1.4782    0.0000 H   0  0  0  0  0  0  0  0  0  0  0  0
   16.0156    1.4782    0.0000 H   0  0  0  0  0  0  0  0  0  0  0  0
   18.0131   -0.8000    0.0000 C   0  0  0  0  0  0  0  0  0  0  0  0
   19.3990   -1.6000    0.0000 H   0  0  0  0  0  0  0  0  0  0  0  0
   19.3990    0.0000    0.0000 H   0  0  0  0  0  0  0  0  0  0  0  0
   18.0131   -2.4000    0.0000 H   0  0  0  0  0  0  0  0  0  0  0  0
   -1.3856   -0.8000    0.0000 C   0  0  0  0  0  0  0  0  0  0  0  0
   -1.9978   -2.2782    0.0000 H   0  0  0  0  0  0  0  0  0  0  0  0
   -0.7735   -2.2782    0.0000 H   0  0  0  0  0  0  0  0  0  0  0  0
   -2.7715    0.0000    0.0000 C   0  0  0  0  0  0  0  0  0  0  0  0
   -2.1588    1.4782    0.0000 H   0  0  0  0  0  0  0  0  0  0  0  0
   -3.3837    1.4782    0.0000 H   0  0  0  0  0  0  0  0  0  0  0  0
   -4.1569   -0.8000    0.0000 C   0  0  0  0  0  0  0  0  0  0  0  0
   -4.7690   -2.2782    0.0000 H   0  0  0  0  0  0  0  0  0  0  0  0
   -3.5447   -2.2782    0.0000 H   0  0  0  0  0  0  0  0  0  0  0  0
   -5.5428    0.0000    0.0000 C   0  0  0  0  0  0  0  0  0  0  0  0
   -4.9300    1.4782    0.0000 H   0  0  0  0  0  0  0  0  0  0  0  0
   -6.1549    1.4782    0.0000 H   0  0  0  0  0  0  0  0  0  0  0  0
   -6.9281   -0.8000    0.0000 C   0  0  0  0  0  0  0  0  0  0  0  0
   -7.5402   -2.2782    0.0000 H   0  0  0  0  0  0  0  0  0  0  0  0
   -6.3159   -2.2782    0.0000 H   0  0  0  0  0  0  0  0  0  0  0  0
   -8.3140    0.0000    0.0000 C   0  0  0  0  0  0  0  0  0  0  0  0
   -7.7013    1.4782    0.0000 H   0  0  0  0  0  0  0  0  0  0  0  0
   -8.9262    1.4782    0.0000 H   0  0  0  0  0  0  0  0  0  0  0  0
   -9.6993   -0.8000    0.0000 C   0  0  0  0  0  0  0  0  0  0  0  0
  -10.3115   -2.2782    0.0000 H   0  0  0  0  0  0  0  0  0  0  0  0
   -9.0872   -2.2782    0.0000 H   0  0  0  0  0  0  0  0  0  0  0  0
  -11.0853    0.0000    0.0000 C   0  0  0  0  0  0  0  0  0  0  0  0
  -10.4731    1.4782    0.0000 H   0  0  0  0  0  0  0  0  0  0  0  0
  -11.6974    1.4782    0.0000 H   0  0  0  0  0  0  0  0  0  0  0  0
  -12.4706   -0.8000    0.0000 C   0  0  0  0  0  0  0  0  0  0  0  0
  -13.0833   -2.2782    0.0000 H   0  0  0  0  0  0  0  0  0  0  0  0
  -11.8584   -2.2782    0.0000 H   0  0  0  0  0  0  0  0  0  0  0  0
  -13.8565    0.0000    0.0000 C   0  0  0  0  0  0  0  0  0  0  0  0
  -13.2443    1.4782    0.0000 H   0  0  0  0  0  0  0  0  0  0  0  0
  -14.4686    1.4782    0.0000 H   0  0  0  0  0  0  0  0  0  0  0  0
  -15.2418   -0.8000    0.0000 C   0  0  0  0  0  0  0  0  0  0  0  0
  -15.8546   -2.2782    0.0000 H   0  0  0  0  0  0  0  0  0  0  0  0
  -14.6297   -2.2782    0.0000 H   0  0  0  0  0  0  0  0  0  0  0  0
  -16.6277    0.0000    0.0000 C   0  0  0  0  0  0  0  0  0  0  0  0
  -16.0156    1.4782    0.0000 H   0  0  0  0  0  0  0  0  0  0  0  0
  -17.2399    1.4782    0.0000 H   0  0  0  0  0  0  0  0  0  0  0  0
  -18.0131   -0.8000    0.0000 C   0  0  0  0  0  0  0  0  0  0  0  0
  -19.3990   -1.6000    0.0000 H   0  0  0  0  0  0  0  0  0  0  0  0
  -19.3990    0.0000    0.0000 H   0  0  0  0  0  0  0  0  0  0  0  0
  -18.0131   -2.4000    0.0000 H   0  0  0  0  0  0  0  0  0  0  0  0
  1  2  1  0  0  0  0
  1  3  1  0  0  0  0
  1  4  1  0  0  0  0
  4  5  1  0  0  0  0
  4  6  1  0  0  0  0
  4  7  1  0  0  0  0
  7  8  1  0  0  0  0
  7  9  1  0  0  0  0
  7 10  1  0  0  0  0
 10 11  1  0  0  0  0
 10 12  1  0  0  0  0
 10 13  1  0  0  0  0
 13 14  1  0  0  0  0
 13 15  1  0  0  0  0
 13 16  1  0  0  0  0
 16 17  1  0  0  0  0
 16 18  1  0  0  0  0
 16 19  1  0  0  0  0
 19 20  1  0  0  0  0
 19 21  1  0  0  0  0
 19 22  1  0  0  0  0
 22 23  1  0  0  0  0
 22 24  1  0  0  0  0
 22 25  1  0  0  0  0
 25 26  1  0  0  0  0
 25 27  1  0  0  0  0
 25 28  1  0  0  0  0
 28 29  1  0  0  0  0
 28 30  1  0  0  0  0
 28 31  1  0  0  0  0
 31 32  1  0  0  0  0
 31 33  1  0  0  0  0
 31 34  1  0  0  0  0
 34 35  1  0  0  0  0
 34 36  1  0  0  0  0
 34 37  1  0  0  0  0
 37 38  1  0  0  0  0
 37 39  1  0  0  0  0
 37 40  1  0  0  0  0
 40 41  1  0  0  0  0
 40 42  1  0  0  0  0
 40 43  1  0  0  0  0
  1 44  1  0  0  0  0
 44 45  1  0  0  0  0
 44 46  1  0  0  0  0
 44 47  1  0  0  0  0
 47 48  1  0  0  0  0
 47 49  1  0  0  0  0
 47 50  1  0  0  0  0
 50 51  1  0  0  0  0
 50 52  1  0  0  0  0
 50 53  1  0  0  0  0
 53 54  1  0  0  0  0
 53 55  1  0  0  0  0
 53 56  1  0  0  0  0
 56 57  1  0  0  0  0
 56 58  1  0  0  0  0
 56 59  1  0  0  0  0
 59 60  1  0  0  0  0
 59 61  1  0  0  0  0
 59 62  1  0  0  0  0
 62 63  1  0  0  0  0
 62 64  1  0  0  0  0
 62 65  1  0  0  0  0
 65 66  1  0  0  0  0
 65 67  1  0  0  0  0
 65 68  1  0  0  0  0
 68 69  1  0  0  0  0
 68 70  1  0  0  0  0
 68 71  1  0  0  0  0
 71 72  1  0  0  0  0
 71 73  1  0  0  0  0
 71 74  1  0  0  0  0
 74 75  1  0  0  0  0
 74 76  1  0  0  0  0
 74 77  1  0  0  0  0
 77 78  1  0  0  0  0
 77 79  1  0  0  0  0
 77 80  1  0  0  0  0
 80 81  1  0  0  0  0
 80 82  1  0  0  0  0
 80 83  1  0  0  0  0
M  END
> <ChemID>
101561

> <source_casrn>
593-49-7

> <CAS>
593-49-7

> <SMILES>
CCCCCCCCCCCCCCCCCCCCCCCCCCC

> <NAME>
HEPTACOSANE

> <preferred_name>
Heptacosane

> <iupac>
Heptacosane

> <MPID>
26167

> <dsstox_substance_id>
DTXSID6058637

> <Canonical_QSARr>
CCCCCCCCCCCCCCCCCCCCCCCCCCC

> <InChI_Code_QSARr>
InChI=1S/C27H56/c1-3-5-7-9-11-13-15-17-19-21-23-25-27-26-24-22-20-18-16-14-12-10-8-6-4-2/h3-27H2,1-2H3

> <InChI Key_QSARr>
BJQWYEJQWHSSCJ-UHFFFAOYSA-N

> <Salt_Solvent>
?

> <LogVP>
-6.551

$$$$
101565
  -INDIGO-08031723152D

  5  4  0  0  0  0  0  0  0  0999 V2000
   -0.8000   -1.3856    0.0000 F   0  0  0  0  0  0  0  0  0  0  0  0
    0.0000    0.0000    0.0000 C   0  0  0  0  0  0  0  0  0  0  0  0
    0.8000    1.3856    0.0000 H   0  0  0  0  0  0  0  0  0  0  0  0
   -1.3856    0.8000    0.0000 H   0  0  0  0  0  0  0  0  0  0  0  0
    1.3856   -0.8000    0.0000 Cl  0  0  0  0  0  0  0  0  0  0  0  0
  1  2  1  0  0  0  0
  2  3  1  0  0  0  0
  2  4  1  0  0  0  0
  2  5  1  0  0  0  0
M  END
> <ChemID>
101565

> <source_casrn>
593-70-4

> <CAS>
593-70-4

> <SMILES>
FCCl

> <NAME>
CHLOROFLUOROMETHANE

> <preferred_name>
Chlorofluoromethane

> <iupac>
chloro(fluoro)methane

> <MPID>
26171

> <dsstox_substance_id>
DTXSID6020305

> <Canonical_QSARr>
FCCl

> <InChI_Code_QSARr>
InChI=1S/CH2ClF/c2-1-3/h1H2

> <InChI Key_QSARr>
XWCDCDSDNJVCLO-UHFFFAOYSA-N

> <Salt_Solvent>
?

> <LogVP>
3.3892

$$$$
101570
  -INDIGO-08031723152D

 12 12  0  0  0  0  0  0  0  0999 V2000
    0.0000   -0.0000    0.0000 C   0  0  0  0  0  0  0  0  0  0  0  0
    0.2779    1.5757    0.0000 H   0  0  0  0  0  0  0  0  0  0  0  0
   -0.8000   -1.3856    0.0000 C   0  0  0  0  0  0  0  0  0  0  0  0
    0.4256   -2.4141    0.0000 H   0  0  0  0  0  0  0  0  0  0  0  0
   -2.0256   -2.4141    0.0000 H   0  0  0  0  0  0  0  0  0  0  0  0
   -1.6000   -0.0000    0.0000 C   0  0  0  0  0  0  0  0  0  0  0  0
   -3.1035   -0.5472    0.0000 H   0  0  0  0  0  0  0  0  0  0  0  0
   -1.8779    1.5757    0.0000 H   0  0  0  0  0  0  0  0  0  0  0  0
    1.5035   -0.5472    0.0000 C   0  0  0  0  0  0  0  0  0  0  0  0
    3.0070   -1.0945    0.0000 H   0  0  0  0  0  0  0  0  0  0  0  0
    2.7292    0.4812    0.0000 H   0  0  0  0  0  0  0  0  0  0  0  0
    1.7814   -2.1229    0.0000 H   0  0  0  0  0  0  0  0  0  0  0  0
  1  2  1  0  0  0  0
  1  3  1  0  0  0  0
  3  4  1  0  0  0  0
  3  5  1  0  0  0  0
  3  6  1  0  0  0  0
  6  1  1  0  0  0  0
  6  7  1  0  0  0  0
  6  8  1  0  0  0  0
  1  9  1  0  0  0  0
  9 10  1  0  0  0  0
  9 11  1  0  0  0  0
  9 12  1  0  0  0  0
M  END
> <ChemID>
101570

> <source_casrn>
594-11-6

> <CAS>
594-11-6

> <SMILES>
CC1CC1

> <NAME>
METHYLCYCLOPROPANE

> <preferred_name>
Cyclopropane, methyl-

> <iupac>
METHYLCYCLOPROPANE

> <MPID>
26175

> <dsstox_substance_id>
DTXSID5060481

> <Canonical_QSARr>
CC1CC1

> <InChI_Code_QSARr>
InChI=1S/C4H8/c1-4-2-3-4/h4H,2-3H2,1H3

> <InChI Key_QSARr>
VNXBKJFUJUWOCW-UHFFFAOYSA-N

> <Salt_Solvent>
?

> <LogVP>
3.1995

$$$$
101577
  -INDIGO-08031723152D

 15 14  0  0  0  0  0  0  0  0999 V2000
   -0.8000    1.3856    0.0000 C   0  0  0  0  0  0  0  0  0  0  0  0
    0.0000    2.7713    0.0000 O   0  0  0  0  0  0  0  0  0  0  0  0
   -2.4000    1.3856    0.0000 O   0  0  0  0  0  0  0  0  0  0  0  0
   -3.2000    2.7713    0.0000 H   0  0  0  0  0  0  0  0  0  0  0  0
    0.0000    0.0000    0.0000 C   0  0  0  0  0  0  0  0  0  0  0  0
    1.3857    0.8000    0.0000 C   0  0  0  0  0  0  0  0  0  0  0  0
    2.7713    1.6000    0.0000 H   0  0  0  0  0  0  0  0  0  0  0  0
    2.7713    0.0000    0.0000 H   0  0  0  0  0  0  0  0  0  0  0  0
    1.3857    2.4000    0.0000 H   0  0  0  0  0  0  0  0  0  0  0  0
   -1.3856   -0.8000    0.0000 C   0  0  0  0  0  0  0  0  0  0  0  0
   -2.7713   -1.6000    0.0000 H   0  0  0  0  0  0  0  0  0  0  0  0
   -1.3856   -2.4000    0.0000 H   0  0  0  0  0  0  0  0  0  0  0  0
   -2.7713    0.0000    0.0000 H   0  0  0  0  0  0  0  0  0  0  0  0
    0.8000   -1.3856    0.0000 O   0  0  0  0  0  0  0  0  0  0  0  0
    2.4000   -1.3856    0.0000 H   0  0  0  0  0  0  0  0  0  0  0  0
  1  2  2  0  0  0  0
  1  3  1  0  0  0  0
  3  4  1  0  0  0  0
  1  5  1  0  0  0  0
  5  6  1  0  0  0  0
  6  7  1  0  0  0  0
  6  8  1  0  0  0  0
  6  9  1  0  0  0  0
  5 10  1  0  0  0  0
 10 11  1  0  0  0  0
 10 12  1  0  0  0  0
 10 13  1  0  0  0  0
  5 14  1  0  0  0  0
 14 15  1  0  0  0  0
M  END
> <ChemID>
101577

> <source_casrn>
594-61-6

> <CAS>
594-61-6

> <SMILES>
CC(C)(O)C(O)=O

> <NAME>
A-HYDROXY-I-BUTYRIC ACID

> <preferred_name>
2-Hydroxyisobutyric acid

> <iupac>
2-hydroxy-2-methylpropanoic acid

> <MPID>
26179

> <dsstox_substance_id>
DTXSID4032954

> <Canonical_QSARr>
CC(C)(O)C(O)=O

> <InChI_Code_QSARr>
InChI=1S/C4H8O3/c1-4(2,7)3(5)6/h7H,1-2H3,(H,5,6)

> <InChI Key_QSARr>
BWLBGMIXKSTLSX-UHFFFAOYSA-N

> <Salt_Solvent>
?

> <LogVP>
-2.058

$$$$
101581
  -INDIGO-08031723152D

 20 19  0  0  0  0  0  0  0  0999 V2000
   -0.8000   -1.3857    0.0000 C   0  0  0  0  0  0  0  0  0  0  0  0
   -0.0000    0.0000    0.0000 C   0  0  0  0  0  0  0  0  0  0  0  0
    1.3856   -0.8000    0.0000 C   0  0  0  0  0  0  0  0  0  0  0  0
    2.3597    0.4694    0.0000 H   0  0  0  0  0  0  0  0  0  0  0  0
    2.9720   -0.5912    0.0000 H   0  0  0  0  0  0  0  0  0  0  0  0
    1.9328   -2.3035    0.0000 C   0  0  0  0  0  0  0  0  0  0  0  0
    2.4801   -3.8070    0.0000 H   0  0  0  0  0  0  0  0  0  0  0  0
    3.5086   -2.5813    0.0000 H   0  0  0  0  0  0  0  0  0  0  0  0
    0.9044   -3.5292    0.0000 H   0  0  0  0  0  0  0  0  0  0  0  0
   -1.3857    0.8000    0.0000 C   0  0  0  0  0  0  0  0  0  0  0  0
   -2.7713    1.6000    0.0000 H   0  0  0  0  0  0  0  0  0  0  0  0
   -1.3857    2.4000    0.0000 H   0  0  0  0  0  0  0  0  0  0  0  0
   -2.7713    0.0000    0.0000 H   0  0  0  0  0  0  0  0  0  0  0  0
    0.8000    1.3857    0.0000 C   0  0  0  0  0  0  0  0  0  0  0  0
    1.6001    2.7713    0.0000 H   0  0  0  0  0  0  0  0  0  0  0  0
    2.3757    1.6635    0.0000 H   0  0  0  0  0  0  0  0  0  0  0  0
   -0.0000    2.7713    0.0000 H   0  0  0  0  0  0  0  0  0  0  0  0
   -2.4000   -1.3857    0.0000 O   0  0  0  0  0  0  0  0  0  0  0  0
   -3.2000   -2.7713    0.0000 H   0  0  0  0  0  0  0  0  0  0  0  0
   -0.0000   -2.7713    0.0000 O   0  0  0  0  0  0  0  0  0  0  0  0
  1  2  1  0  0  0  0
  2  3  1  0  0  0  0
  3  4  1  0  0  0  0
  3  5  1  0  0  0  0
  3  6  1  0  0  0  0
  6  7  1  0  0  0  0
  6  8  1  0  0  0  0
  6  9  1  0  0  0  0
  2 10  1  0  0  0  0
 10 11  1  0  0  0  0
 10 12  1  0  0  0  0
 10 13  1  0  0  0  0
  2 14  1  0  0  0  0
 14 15  1  0  0  0  0
 14 16  1  0  0  0  0
 14 17  1  0  0  0  0
  1 18  1  0  0  0  0
 18 19  1  0  0  0  0
  1 20  2  0  0  0  0
M  END
> <ChemID>
101581

> <source_casrn>
595-37-9

> <CAS>
595-37-9

> <SMILES>
CCC(C)(C)C(O)=O

> <NAME>
2,2-DIMETHYL BUTYRIC ACID

> <preferred_name>
2,2-Dimethylbutanoic acid

> <iupac>
2,2-dimethylbutanoic acid

> <MPID>
26183

> <dsstox_substance_id>
DTXSID0032811

> <Canonical_QSARr>
CCC(C)(C)C(O)=O

> <InChI_Code_QSARr>
InChI=1S/C6H12O2/c1-4-6(2,3)5(7)8/h4H2,1-3H3,(H,7,8)

> <InChI Key_QSARr>
VUAXHMVRKOTJKP-UHFFFAOYSA-N

> <Salt_Solvent>
?

> <LogVP>
-0.8297

$$$$
101586
  -INDIGO-08031723152D

 13 12  0  0  0  0  0  0  0  0999 V2000
   -0.0000    0.0000    0.0000 C   0  0  0  0  0  0  0  0  0  0  0  0
    0.8000    1.3856    0.0000 C   0  0  0  0  0  0  0  0  0  0  0  0
    1.6000    2.7713    0.0000 H   0  0  0  0  0  0  0  0  0  0  0  0
   -0.0000    2.7713    0.0000 H   0  0  0  0  0  0  0  0  0  0  0  0
    2.4000    1.3856    0.0000 H   0  0  0  0  0  0  0  0  0  0  0  0
    0.8000   -1.3856    0.0000 C   0  0  0  0  0  0  0  0  0  0  0  0
    1.6000   -2.7713    0.0000 H   0  0  0  0  0  0  0  0  0  0  0  0
   -0.0000   -2.7713    0.0000 H   0  0  0  0  0  0  0  0  0  0  0  0
    2.4000   -1.3856    0.0000 H   0  0  0  0  0  0  0  0  0  0  0  0
   -1.6000    0.0000    0.0000 C   0  0  0  0  0  0  0  0  0  0  0  0
   -3.2000    0.0000    0.0000 C   0  0  0  0  0  0  0  0  0  0  0  0
   -4.0000   -1.3856    0.0000 H   0  0  0  0  0  0  0  0  0  0  0  0
   -4.0000    1.3856    0.0000 H   0  0  0  0  0  0  0  0  0  0  0  0
  1  2  1  0  0  0  0
  2  3  1  0  0  0  0
  2  4  1  0  0  0  0
  2  5  1  0  0  0  0
  1  6  1  0  0  0  0
  6  7  1  0  0  0  0
  6  8  1  0  0  0  0
  6  9  1  0  0  0  0
  1 10  2  0  0  0  0
 10 11  2  0  0  0  0
 11 12  1  0  0  0  0
 11 13  1  0  0  0  0
M  END
> <ChemID>
101586

> <source_casrn>
598-25-4

> <CAS>
598-25-4

> <SMILES>
CC(C)=C=C

> <NAME>
3-METHYL-1,2-BUTADIENE

> <preferred_name>
3-Methylbuta-1,2-diene

> <iupac>
3-Methylbuta-1,2-diene

> <MPID>
26187

> <dsstox_substance_id>
DTXSID00208529

> <Canonical_QSARr>
CC(C)=C=C

> <InChI_Code_QSARr>
InChI=1S/C5H8/c1-4-5(2)3/h1H2,2-3H3

> <InChI Key_QSARr>
PAKGDPSCXSUALC-UHFFFAOYSA-N

> <Salt_Solvent>
?

> <LogVP>
2.6298

$$$$
101590
  -INDIGO-08031723152D

  6  5  0  0  0  0  0  0  0  0999 V2000
    0.0000    0.0000    0.0000 C   0  0  0  0  0  0  0  0  0  0  0  0
    1.6000    0.0000    0.0000 C   0  0  0  0  0  0  0  0  0  0  0  0
    2.4000    1.3856    0.0000 F   0  0  0  0  0  0  0  0  0  0  0  0
    2.4000   -1.3856    0.0000 Br  0  0  0  0  0  0  0  0  0  0  0  0
   -0.8000    1.3856    0.0000 F   0  0  0  0  0  0  0  0  0  0  0  0
   -0.8000   -1.3856    0.0000 F   0  0  0  0  0  0  0  0  0  0  0  0
  1  2  2  0  0  0  0
  2  3  1  0  0  0  0
  2  4  1  0  0  0  0
  1  5  1  0  0  0  0
  1  6  1  0  0  0  0
M  END
> <ChemID>
101590

> <source_casrn>
598-73-2

> <CAS>
598-73-2

> <SMILES>
FC(F)=C(F)Br

> <NAME>
2-BROMO-1,1,2-TRIFLUOROETHYLENE

> <preferred_name>
Bromotrifluoroethene

> <iupac>
1-bromo-1,2,2-trifluoroethene

> <MPID>
26191

> <dsstox_substance_id>
DTXSID0060513

> <Canonical_QSARr>
FC(F)=C(F)Br

> <InChI_Code_QSARr>
InChI=1S/C2BrF3/c3-1(4)2(5)6

> <InChI Key_QSARr>
AYCANDRGVPTASA-UHFFFAOYSA-N

> <Salt_Solvent>
?

> <LogVP>
3.2945

$$$$
101595
  -INDIGO-08031723152D

 32 33  0  0  0  0  0  0  0  0999 V2000
    0.0000    0.0000    0.0000 C   0  0  0  0  0  0  0  0  0  0  0  0
    1.6000    0.0000    0.0000 C   0  0  0  0  0  0  0  0  0  0  0  0
    2.4000    1.3856    0.0000 C   0  0  0  0  0  0  0  0  0  0  0  0
    1.6000    2.7713    0.0000 H   0  0  0  0  0  0  0  0  0  0  0  0
    4.0000    1.3856    0.0000 C   0  0  0  0  0  0  0  0  0  0  0  0
    4.8000    2.7713    0.0000 H   0  0  0  0  0  0  0  0  0  0  0  0
    4.8000    0.0000    0.0000 C   0  0  0  0  0  0  0  0  0  0  0  0
    6.4000    0.0000    0.0000 O   0  0  0  0  0  0  0  0  0  0  0  0
    7.2000    1.3856    0.0000 H   0  0  0  0  0  0  0  0  0  0  0  0
    4.0000   -1.3856    0.0000 C   0  0  0  0  0  0  0  0  0  0  0  0
    4.8000   -2.7713    0.0000 H   0  0  0  0  0  0  0  0  0  0  0  0
    2.4000   -1.3856    0.0000 C   0  0  0  0  0  0  0  0  0  0  0  0
    1.6000   -2.7713    0.0000 H   0  0  0  0  0  0  0  0  0  0  0  0
   -1.6000   -0.0000    0.0000 C   0  0  0  0  0  0  0  0  0  0  0  0
   -2.4000   -1.3856    0.0000 C   0  0  0  0  0  0  0  0  0  0  0  0
   -2.4000   -2.9857    0.0000 H   0  0  0  0  0  0  0  0  0  0  0  0
   -4.0000   -1.3856    0.0000 C   0  0  0  0  0  0  0  0  0  0  0  0
   -4.8000   -2.7713    0.0000 H   0  0  0  0  0  0  0  0  0  0  0  0
   -4.8000    0.0000    0.0000 C   0  0  0  0  0  0  0  0  0  0  0  0
   -6.4000    0.0000    0.0000 H   0  0  0  0  0  0  0  0  0  0  0  0
   -4.0000    1.3856    0.0000 C   0  0  0  0  0  0  0  0  0  0  0  0
   -4.8000    2.7713    0.0000 H   0  0  0  0  0  0  0  0  0  0  0  0
   -2.4000    1.3856    0.0000 C   0  0  0  0  0  0  0  0  0  0  0  0
   -2.1221    2.9613    0.0000 H   0  0  0  0  0  0  0  0  0  0  0  0
    0.2779    1.5757    0.0000 C   0  0  0  0  0  0  0  0  0  0  0  0
    0.5557    3.1514    0.0000 H   0  0  0  0  0  0  0  0  0  0  0  0
   -0.9478    2.6042    0.0000 H   0  0  0  0  0  0  0  0  0  0  0  0
   -1.2256    1.0284    0.0000 H   0  0  0  0  0  0  0  0  0  0  0  0
   -0.2779   -1.5757    0.0000 C   0  0  0  0  0  0  0  0  0  0  0  0
   -0.5557   -3.1514    0.0000 H   0  0  0  0  0  0  0  0  0  0  0  0
   -1.7814   -2.1229    0.0000 H   0  0  0  0  0  0  0  0  0  0  0  0
    1.2256   -1.0284    0.0000 H   0  0  0  0  0  0  0  0  0  0  0  0
  1  2  1  0  0  0  0
  2  3  1  0  0  0  0
  3  4  1  0  0  0  0
  3  5  2  0  0  0  0
  5  6  1  0  0  0  0
  5  7  1  0  0  0  0
  7  8  1  0  0  0  0
  8  9  1  0  0  0  0
  7 10  2  0  0  0  0
 10 11  1  0  0  0  0
 10 12  1  0  0  0  0
 12  2  2  0  0  0  0
 12 13  1  0  0  0  0
  1 14  1  0  0  0  0
 14 15  1  0  0  0  0
 15 16  1  0  0  0  0
 15 17  2  0  0  0  0
 17 18  1  0  0  0  0
 17 19  1  0  0  0  0
 19 20  1  0  0  0  0
 19 21  2  0  0  0  0
 21 22  1  0  0  0  0
 21 23  1  0  0  0  0
 23 14  2  0  0  0  0
 23 24  1  0  0  0  0
  1 25  1  0  0  0  0
 25 26  1  0  0  0  0
 25 27  1  0  0  0  0
 25 28  1  0  0  0  0
  1 29  1  0  0  0  0
 29 30  1  0  0  0  0
 29 31  1  0  0  0  0
 29 32  1  0  0  0  0
M  END
> <ChemID>
101595

> <source_casrn>
599-64-4

> <CAS>
599-64-4

> <SMILES>
CC(C)(c1ccccc1)c1ccc(O)cc1

> <NAME>
Phenol, 4-(1-methyl-1-phenylethyl)-

> <preferred_name>
4-Cumylphenol

> <iupac>
C15H16O

> <MPID>
26195

> <dsstox_substance_id>
DTXSID3022536

> <Canonical_QSARr>
CC(C)(c1ccccc1)c1ccc(O)cc1

> <InChI_Code_QSARr>
InChI=1S/C15H16O/c1-15(2,12-6-4-3-5-7-12)13-8-10-14(16)11-9-13/h3-11,16H,1-2H3

> <InChI Key_QSARr>
QBDSZLJBMIMQRS-UHFFFAOYSA-N

> <Salt_Solvent>
?

> <LogVP>
-4.2262

$$$$
101599
  -INDIGO-08031723152D

 34 37  0  0  0  0  0  0  0  0999 V2000
    0.0001    0.0000    0.0000 C   0  0  0  0  0  0  0  0  0  0  0  0
   -1.3856   -0.8000    0.0000 C   0  0  0  0  0  0  0  0  0  0  0  0
   -1.3856   -2.4000    0.0000 C   0  0  0  0  0  0  0  0  0  0  0  0
   -2.7712   -3.2000    0.0000 C   0  0  0  0  0  0  0  0  0  0  0  0
   -2.7712   -4.8000    0.0000 H   0  0  0  0  0  0  0  0  0  0  0  0
   -4.1569   -2.4000    0.0000 C   0  0  0  0  0  0  0  0  0  0  0  0
   -5.5426   -3.2000    0.0000 H   0  0  0  0  0  0  0  0  0  0  0  0
   -4.1569   -0.8000    0.0000 C   0  0  0  0  0  0  0  0  0  0  0  0
   -5.5426    0.0000    0.0000 H   0  0  0  0  0  0  0  0  0  0  0  0
   -2.7712    0.0000    0.0000 C   0  0  0  0  0  0  0  0  0  0  0  0
   -3.1577    0.8701    0.0000 H   0  0  0  0  0  0  0  0  0  0  0  0
    0.0001   -3.2000    0.0000 C   0  0  0  0  0  0  0  0  0  0  0  0
    0.0001   -4.8000    0.0000 H   0  0  0  0  0  0  0  0  0  0  0  0
    1.3856   -2.4000    0.0000 C   0  0  0  0  0  0  0  0  0  0  0  0
    1.3856   -0.8000    0.0000 C   0  0  0  0  0  0  0  0  0  0  0  0
    2.7712    0.0000    0.0000 C   0  0  0  0  0  0  0  0  0  0  0  0
    2.7712    1.6000    0.0000 H   0  0  0  0  0  0  0  0  0  0  0  0
    4.1569   -0.8000    0.0000 C   0  0  0  0  0  0  0  0  0  0  0  0
    5.5426    0.0000    0.0000 H   0  0  0  0  0  0  0  0  0  0  0  0
    4.1569   -2.4000    0.0000 C   0  0  0  0  0  0  0  0  0  0  0  0
    5.5426   -3.2000    0.0000 H   0  0  0  0  0  0  0  0  0  0  0  0
    2.7712   -3.2000    0.0000 C   0  0  0  0  0  0  0  0  0  0  0  0
    2.7712   -4.8000    0.0000 H   0  0  0  0  0  0  0  0  0  0  0  0
   -0.2778    1.5757    0.0000 C   0  0  0  0  0  0  0  0  0  0  0  0
    0.7506    2.8013    0.0000 C   0  0  0  0  0  0  0  0  0  0  0  0
    2.3264    2.5236    0.0000 H   0  0  0  0  0  0  0  0  0  0  0  0
    0.2034    4.3048    0.0000 C   0  0  0  0  0  0  0  0  0  0  0  0
    1.2318    5.5306    0.0000 H   0  0  0  0  0  0  0  0  0  0  0  0
   -1.3724    4.5827    0.0000 C   0  0  0  0  0  0  0  0  0  0  0  0
   -1.9196    6.0862    0.0000 H   0  0  0  0  0  0  0  0  0  0  0  0
   -2.4008    3.3570    0.0000 C   0  0  0  0  0  0  0  0  0  0  0  0
   -3.9764    3.6349    0.0000 H   0  0  0  0  0  0  0  0  0  0  0  0
   -1.8536    1.8535    0.0000 C   0  0  0  0  0  0  0  0  0  0  0  0
   -2.7712    1.6000    0.0000 H   0  0  0  0  0  0  0  0  0  0  0  0
  1  2  1  0  0  0  0
  2  3  1  0  0  0  0
  3  4  2  0  0  0  0
  4  5  1  0  0  0  0
  4  6  1  0  0  0  0
  6  7  1  0  0  0  0
  6  8  2  0  0  0  0
  8  9  1  0  0  0  0
  8 10  1  0  0  0  0
 10  2  2  0  0  0  0
 10 11  1  0  0  0  0
  3 12  1  0  0  0  0
 12 13  1  0  0  0  0
 12 14  2  0  0  0  0
 14 15  1  0  0  0  0
 15  1  2  0  0  0  0
 15 16  1  0  0  0  0
 16 17  1  0  0  0  0
 16 18  2  0  0  0  0
 18 19  1  0  0  0  0
 18 20  1  0  0  0  0
 20 21  1  0  0  0  0
 20 22  2  0  0  0  0
 22 14  1  0  0  0  0
 22 23  1  0  0  0  0
  1 24  1  0  0  0  0
 24 25  1  0  0  0  0
 25 26  1  0  0  0  0
 25 27  2  0  0  0  0
 27 28  1  0  0  0  0
 27 29  1  0  0  0  0
 29 30  1  0  0  0  0
 29 31  2  0  0  0  0
 31 32  1  0  0  0  0
 31 33  1  0  0  0  0
 33 24  2  0  0  0  0
 33 34  1  0  0  0  0
M  END
> <ChemID>
101599

> <source_casrn>
602-55-1

> <CAS>
602-55-1

> <SMILES>
c1c2ccccc2c(c2ccccc21)-c1ccccc1

> <NAME>
9-PHENYLANTHRACENE

> <preferred_name>
Anthracene, 9-phenyl-

> <iupac>
9-PHENYLANTHRACENE

> <MPID>
26199

> <dsstox_substance_id>
DTXSID3075254

> <Canonical_QSARr>
c1c2ccccc2c(c2ccccc21)-c1ccccc1

> <InChI_Code_QSARr>
InChI=1S/C20H14/c1-2-8-15(9-3-1)20-18-12-6-4-10-16(18)14-17-11-5-7-13-19(17)20/h1-14H

> <InChI Key_QSARr>
LUBXLGUQZVKOFP-UHFFFAOYSA-N

> <Salt_Solvent>
?

> <LogVP>
-7.301

$$$$
101604
  -INDIGO-08031723152D

 19 19  0  0  0  0  0  0  0  0999 V2000
    0.8000    1.3856    0.0000 C   0  0  0  0  0  0  0  0  0  0  0  0
    1.6000    2.7713    0.0000 H   0  0  0  0  0  0  0  0  0  0  0  0
   -0.0000    2.7713    0.0000 H   0  0  0  0  0  0  0  0  0  0  0  0
    2.4000    1.3856    0.0000 H   0  0  0  0  0  0  0  0  0  0  0  0
   -0.0000    0.0000    0.0000 C   0  0  0  0  0  0  0  0  0  0  0  0
    0.8000   -1.3856    0.0000 C   0  0  0  0  0  0  0  0  0  0  0  0
    2.4000   -1.3856    0.0000 N   0  0  0  0  0  0  0  0  0  0  0  0
    3.2000   -2.7713    0.0000 O   0  0  0  0  0  0  0  0  0  0  0  0
    3.2000    0.0000    0.0000 O   0  0  0  0  0  0  0  0  0  0  0  0
   -0.0000   -2.7713    0.0000 C   0  0  0  0  0  0  0  0  0  0  0  0
    0.8000   -4.1569    0.0000 H   0  0  0  0  0  0  0  0  0  0  0  0
   -1.6000   -2.7713    0.0000 C   0  0  0  0  0  0  0  0  0  0  0  0
   -2.4000   -4.1569    0.0000 H   0  0  0  0  0  0  0  0  0  0  0  0
   -2.4000   -1.3856    0.0000 C   0  0  0  0  0  0  0  0  0  0  0  0
   -4.0000   -1.3856    0.0000 H   0  0  0  0  0  0  0  0  0  0  0  0
   -1.6000    0.0000    0.0000 C   0  0  0  0  0  0  0  0  0  0  0  0
   -2.4000    1.3856    0.0000 N   0  0  0  0  0  0  0  0  0  0  0  0
   -4.0000    1.3856    0.0000 O   0  0  0  0  0  0  0  0  0  0  0  0
   -1.6000    2.7713    0.0000 O   0  0  0  0  0  0  0  0  0  0  0  0
  1  2  1  0  0  0  0
  1  3  1  0  0  0  0
  1  4  1  0  0  0  0
  1  5  1  0  0  0  0
  5  6  1  0  0  0  0
  6  7  1  0  0  0  0
  7  8  2  0  0  0  0
  7  9  1  0  0  0  0
  6 10  2  0  0  0  0
 10 11  1  0  0  0  0
 10 12  1  0  0  0  0
 12 13  1  0  0  0  0
 12 14  2  0  0  0  0
 14 15  1  0  0  0  0
 14 16  1  0  0  0  0
 16  5  2  0  0  0  0
 16 17  1  0  0  0  0
 17 18  2  0  0  0  0
 17 19  1  0  0  0  0
M  CHG  4   7   1   9  -1  17   1  19  -1
M  END
> <ChemID>
101604

> <source_casrn>
606-20-2

> <CAS>
606-20-2

> <SMILES>
Cc1c(cccc1[N+]([O-])=O)[N+]([O-])=O

> <NAME>
2,6-DINITROTOLUENE

> <preferred_name>
2,6-Dinitrotoluene

> <iupac>
2-methyl-1,3-dinitrobenzene

> <MPID>
26203

> <dsstox_substance_id>
DTXSID5020528

> <Canonical_QSARr>
Cc1c(cccc1[N+]([O-])=O)[N+]([O-])=O

> <InChI_Code_QSARr>
InChI=1S/C7H6N2O4/c1-5-6(8(10)11)3-2-4-7(5)9(12)13/h2-4H,1H3

> <InChI Key_QSARr>
XTRDKALNCIHHNI-UHFFFAOYSA-N

> <Salt_Solvent>
?

> <LogVP>
-3.2464

$$$$
101609
  -INDIGO-08031723152D

 23 23  0  0  0  0  0  0  0  0999 V2000
    0.8000    1.3856    0.0000 C   0  0  0  0  0  0  0  0  0  0  0  0
    2.4000    1.3856    0.0000 C   0  0  0  0  0  0  0  0  0  0  0  0
    3.2001    2.7713    0.0000 H   0  0  0  0  0  0  0  0  0  0  0  0
    3.2001    0.0000    0.0000 C   0  0  0  0  0  0  0  0  0  0  0  0
    4.8000    0.0000    0.0000 H   0  0  0  0  0  0  0  0  0  0  0  0
    2.4000   -1.3856    0.0000 C   0  0  0  0  0  0  0  0  0  0  0  0
    3.2001   -2.7713    0.0000 H   0  0  0  0  0  0  0  0  0  0  0  0
    0.8000   -1.3856    0.0000 C   0  0  0  0  0  0  0  0  0  0  0  0
    0.0000   -2.7713    0.0000 H   0  0  0  0  0  0  0  0  0  0  0  0
    0.0000    0.0000    0.0000 C   0  0  0  0  0  0  0  0  0  0  0  0
   -1.6000    0.0000    0.0000 N   0  0  0  0  0  0  0  0  0  0  0  0
   -2.4001   -1.3856    0.0000 C   0  0  0  0  0  0  0  0  0  0  0  0
   -3.2000   -2.7713    0.0000 H   0  0  0  0  0  0  0  0  0  0  0  0
   -4.0000   -1.3856    0.0000 H   0  0  0  0  0  0  0  0  0  0  0  0
   -1.6000   -2.7713    0.0000 H   0  0  0  0  0  0  0  0  0  0  0  0
   -2.4001    1.3856    0.0000 C   0  0  0  0  0  0  0  0  0  0  0  0
   -4.0000    1.3856    0.0000 H   0  0  0  0  0  0  0  0  0  0  0  0
   -3.2000    2.7713    0.0000 H   0  0  0  0  0  0  0  0  0  0  0  0
   -3.2000    0.0000    0.0000 H   0  0  0  0  0  0  0  0  0  0  0  0
    0.0000    2.7713    0.0000 C   0  0  0  0  0  0  0  0  0  0  0  0
   -0.8000    4.1569    0.0000 H   0  0  0  0  0  0  0  0  0  0  0  0
    0.8000    4.1569    0.0000 H   0  0  0  0  0  0  0  0  0  0  0  0
   -1.6000    2.7713    0.0000 H   0  0  0  0  0  0  0  0  0  0  0  0
  1  2  1  0  0  0  0
  2  3  1  0  0  0  0
  2  4  2  0  0  0  0
  4  5  1  0  0  0  0
  4  6  1  0  0  0  0
  6  7  1  0  0  0  0
  6  8  2  0  0  0  0
  8  9  1  0  0  0  0
  8 10  1  0  0  0  0
 10  1  2  0  0  0  0
 10 11  1  0  0  0  0
 11 12  1  0  0  0  0
 12 13  1  0  0  0  0
 12 14  1  0  0  0  0
 12 15  1  0  0  0  0
 11 16  1  0  0  0  0
 16 17  1  0  0  0  0
 16 18  1  0  0  0  0
 16 19  1  0  0  0  0
  1 20  1  0  0  0  0
 20 21  1  0  0  0  0
 20 22  1  0  0  0  0
 20 23  1  0  0  0  0
M  END
> <ChemID>
101609

> <source_casrn>
609-72-3

> <CAS>
609-72-3

> <SMILES>
Cc1ccccc1N(C)C

> <NAME>
N,N-DIMETHYL-O-TOLUIDINE

> <preferred_name>
N,N,2-Trimethylaniline

> <iupac>
N,N,2-trimethylaniline

> <MPID>
26207

> <dsstox_substance_id>
DTXSID8052279

> <Canonical_QSARr>
Cc1ccccc1N(C)C

> <InChI_Code_QSARr>
InChI=1S/C9H13N/c1-8-6-4-5-7-9(8)10(2)3/h4-7H,1-3H3

> <InChI Key_QSARr>
JDEJGVSZUIJWBM-UHFFFAOYSA-N

> <Salt_Solvent>
?

> <LogVP>
-0.0643

$$$$
101613
  -INDIGO-08031723152D

 20 21  0  0  0  0  0  0  0  0999 V2000
    2.4001    1.3856    0.0000 C   0  0  0  0  0  0  0  0  0  0  0  0
    3.2000    2.7713    0.0000 H   0  0  0  0  0  0  0  0  0  0  0  0
    4.0000    1.3856    0.0000 H   0  0  0  0  0  0  0  0  0  0  0  0
    1.6000    2.7713    0.0000 H   0  0  0  0  0  0  0  0  0  0  0  0
    1.6000    0.0000    0.0000 C   0  0  0  0  0  0  0  0  0  0  0  0
    2.4001   -1.3856    0.0000 C   0  0  0  0  0  0  0  0  0  0  0  0
    4.0000   -1.3856    0.0000 H   0  0  0  0  0  0  0  0  0  0  0  0
    1.6000   -2.7713    0.0000 C   0  0  0  0  0  0  0  0  0  0  0  0
    2.4001   -4.1569    0.0000 H   0  0  0  0  0  0  0  0  0  0  0  0
   -0.0000   -2.7713    0.0000 C   0  0  0  0  0  0  0  0  0  0  0  0
   -0.8000   -4.1569    0.0000 H   0  0  0  0  0  0  0  0  0  0  0  0
   -0.8000   -1.3856    0.0000 C   0  0  0  0  0  0  0  0  0  0  0  0
   -0.0000    0.0000    0.0000 C   0  0  0  0  0  0  0  0  0  0  0  0
   -0.8000    1.3856    0.0000 N   0  0  0  0  0  0  0  0  0  0  0  0
   -2.4000    1.3856    0.0000 C   0  0  0  0  0  0  0  0  0  0  0  0
   -3.2001    2.7713    0.0000 H   0  0  0  0  0  0  0  0  0  0  0  0
   -3.2001    0.0000    0.0000 C   0  0  0  0  0  0  0  0  0  0  0  0
   -4.8000    0.0000    0.0000 H   0  0  0  0  0  0  0  0  0  0  0  0
   -2.4000   -1.3856    0.0000 C   0  0  0  0  0  0  0  0  0  0  0  0
   -3.2001   -2.7713    0.0000 H   0  0  0  0  0  0  0  0  0  0  0  0
  1  2  1  0  0  0  0
  1  3  1  0  0  0  0
  1  4  1  0  0  0  0
  1  5  1  0  0  0  0
  5  6  1  0  0  0  0
  6  7  1  0  0  0  0
  6  8  2  0  0  0  0
  8  9  1  0  0  0  0
  8 10  1  0  0  0  0
 10 11  1  0  0  0  0
 10 12  2  0  0  0  0
 12 13  1  0  0  0  0
 13  5  2  0  0  0  0
 13 14  1  0  0  0  0
 14 15  2  0  0  0  0
 15 16  1  0  0  0  0
 15 17  1  0  0  0  0
 17 18  1  0  0  0  0
 17 19  2  0  0  0  0
 19 12  1  0  0  0  0
 19 20  1  0  0  0  0
M  END
> <ChemID>
101613

> <source_casrn>
611-32-5

> <CAS>
611-32-5

> <SMILES>
Cc1cccc2ccc[n]c21

> <NAME>
8-METHYLQUINOLINE

> <preferred_name>
8-Methylquinoline

> <iupac>
8-methylquinoline

> <MPID>
26211

> <dsstox_substance_id>
DTXSID8020888

> <Canonical_QSARr>
Cc1cccc2ccc[n]c21

> <InChI_Code_QSARr>
InChI=1S/C10H9N/c1-8-4-2-5-9-6-3-7-11-10(8)9/h2-7H,1H3

> <InChI Key_QSARr>
JRLTTZUODKEYDH-UHFFFAOYSA-N

> <Salt_Solvent>
?

> <LogVP>
-1.6024

$$$$
101617
  -INDIGO-08031723152D

 28 30  0  0  0  0  0  0  0  0999 V2000
    0.0000    0.0000    0.0000 C   0  0  0  0  0  0  0  0  0  0  0  0
    1.6000    0.0000    0.0000 C   0  0  0  0  0  0  0  0  0  0  0  0
    2.4000   -1.3856    0.0000 C   0  0  0  0  0  0  0  0  0  0  0  0
    1.6000   -2.7713    0.0000 H   0  0  0  0  0  0  0  0  0  0  0  0
    4.0000   -1.3856    0.0000 C   0  0  0  0  0  0  0  0  0  0  0  0
    4.8000   -2.7713    0.0000 H   0  0  0  0  0  0  0  0  0  0  0  0
    4.8000    0.0000    0.0000 C   0  0  0  0  0  0  0  0  0  0  0  0
    6.4000    0.0000    0.0000 H   0  0  0  0  0  0  0  0  0  0  0  0
    4.0000    1.3856    0.0000 C   0  0  0  0  0  0  0  0  0  0  0  0
    4.8000    2.7713    0.0000 H   0  0  0  0  0  0  0  0  0  0  0  0
    2.4000    1.3856    0.0000 C   0  0  0  0  0  0  0  0  0  0  0  0
    1.6000    2.7713    0.0000 H   0  0  0  0  0  0  0  0  0  0  0  0
   -0.8000    1.3856    0.0000 C   0  0  0  0  0  0  0  0  0  0  0  0
    0.0000    2.7713    0.0000 H   0  0  0  0  0  0  0  0  0  0  0  0
   -2.4000    1.3856    0.0000 C   0  0  0  0  0  0  0  0  0  0  0  0
   -3.2000    0.0000    0.0000 C   0  0  0  0  0  0  0  0  0  0  0  0
   -4.8000    0.0000    0.0000 C   0  0  0  0  0  0  0  0  0  0  0  0
   -5.6000   -1.3856    0.0000 H   0  0  0  0  0  0  0  0  0  0  0  0
   -5.6000    1.3856    0.0000 C   0  0  0  0  0  0  0  0  0  0  0  0
   -7.2000    1.3856    0.0000 H   0  0  0  0  0  0  0  0  0  0  0  0
   -4.8000    2.7713    0.0000 C   0  0  0  0  0  0  0  0  0  0  0  0
   -5.6000    4.1569    0.0000 H   0  0  0  0  0  0  0  0  0  0  0  0
   -3.2000    2.7713    0.0000 C   0  0  0  0  0  0  0  0  0  0  0  0
   -2.4000    4.1569    0.0000 H   0  0  0  0  0  0  0  0  0  0  0  0
   -2.4000   -1.3856    0.0000 C   0  0  0  0  0  0  0  0  0  0  0  0
   -3.2000   -2.7713    0.0000 H   0  0  0  0  0  0  0  0  0  0  0  0
   -0.8000   -1.3856    0.0000 C   0  0  0  0  0  0  0  0  0  0  0  0
    0.0000   -2.7713    0.0000 H   0  0  0  0  0  0  0  0  0  0  0  0
  1  2  1  0  0  0  0
  2  3  1  0  0  0  0
  3  4  1  0  0  0  0
  3  5  2  0  0  0  0
  5  6  1  0  0  0  0
  5  7  1  0  0  0  0
  7  8  1  0  0  0  0
  7  9  2  0  0  0  0
  9 10  1  0  0  0  0
  9 11  1  0  0  0  0
 11  2  2  0  0  0  0
 11 12  1  0  0  0  0
  1 13  1  0  0  0  0
 13 14  1  0  0  0  0
 13 15  2  0  0  0  0
 15 16  1  0  0  0  0
 16 17  1  0  0  0  0
 17 18  1  0  0  0  0
 17 19  2  0  0  0  0
 19 20  1  0  0  0  0
 19 21  1  0  0  0  0
 21 22  1  0  0  0  0
 21 23  2  0  0  0  0
 23 15  1  0  0  0  0
 23 24  1  0  0  0  0
 16 25  2  0  0  0  0
 25 26  1  0  0  0  0
 25 27  1  0  0  0  0
 27  1  2  0  0  0  0
 27 28  1  0  0  0  0
M  END
> <ChemID>
101617

> <source_casrn>
612-94-2

> <CAS>
612-94-2

> <SMILES>
c1c(ccc2ccccc21)-c1ccccc1

> <NAME>
NAPHTHALENE, 2-PHENYL-

> <preferred_name>
2-Phenylnaphthalene

> <iupac>
2-PHENYLNAPHTHALENE

> <MPID>
26215

> <dsstox_substance_id>
DTXSID8060614

> <Canonical_QSARr>
c1c(ccc2ccccc21)-c1ccccc1

> <InChI_Code_QSARr>
InChI=1S/C16H12/c1-2-6-13(7-3-1)16-11-10-14-8-4-5-9-15(14)12-16/h1-12H

> <InChI Key_QSARr>
TURIHPLQSRVWHU-UHFFFAOYSA-N

> <Salt_Solvent>
?

> <LogVP>
-4.4559

$$$$
101621
  -INDIGO-08031723152D

 17 16  0  0  0  0  0  0  0  0999 V2000
    1.3857    0.8000    0.0000 C   0  0  0  0  0  0  0  0  0  0  0  0
    2.7713    1.6000    0.0000 H   0  0  0  0  0  0  0  0  0  0  0  0
    2.7713    0.0000    0.0000 H   0  0  0  0  0  0  0  0  0  0  0  0
    1.3857    2.4000    0.0000 H   0  0  0  0  0  0  0  0  0  0  0  0
    0.0000    0.0000    0.0000 C   0  0  0  0  0  0  0  0  0  0  0  0
    0.6123   -1.4782    0.0000 H   0  0  0  0  0  0  0  0  0  0  0  0
   -0.6123   -1.4782    0.0000 H   0  0  0  0  0  0  0  0  0  0  0  0
   -1.3856    0.8000    0.0000 O   0  0  0  0  0  0  0  0  0  0  0  0
   -2.7713    0.0000    0.0000 C   0  0  0  0  0  0  0  0  0  0  0  0
   -2.7713   -1.6000    0.0000 O   0  0  0  0  0  0  0  0  0  0  0  0
   -4.1570    0.8000    0.0000 N   0  0  0  0  0  0  0  0  0  0  0  0
   -5.5426    0.0000    0.0000 C   0  0  0  0  0  0  0  0  0  0  0  0
   -6.9282   -0.8000    0.0000 H   0  0  0  0  0  0  0  0  0  0  0  0
   -6.9282    0.8000    0.0000 H   0  0  0  0  0  0  0  0  0  0  0  0
   -5.5426   -1.6000    0.0000 H   0  0  0  0  0  0  0  0  0  0  0  0
   -4.1570    2.4000    0.0000 N   0  0  0  0  0  0  0  0  0  0  0  0
   -5.5426    3.2000    0.0000 O   0  0  0  0  0  0  0  0  0  0  0  0
  1  2  1  0  0  0  0
  1  3  1  0  0  0  0
  1  4  1  0  0  0  0
  1  5  1  0  0  0  0
  5  6  1  0  0  0  0
  5  7  1  0  0  0  0
  5  8  1  0  0  0  0
  8  9  1  0  0  0  0
  9 10  2  0  0  0  0
  9 11  1  0  0  0  0
 11 12  1  0  0  0  0
 12 13  1  0  0  0  0
 12 14  1  0  0  0  0
 12 15  1  0  0  0  0
 11 16  1  0  0  0  0
 16 17  2  0  0  0  0
M  END
> <ChemID>
101621

> <source_casrn>
615-53-2

> <CAS>
615-53-2

> <SMILES>
CCOC(=O)N(C)N=O

> <NAME>
ETHYL N-METHYLNITROSOCARBAMATE

> <preferred_name>
N-Nitroso-N-methylurethane

> <iupac>
ethyl methyl(nitroso)carbamate

> <MPID>
26219

> <dsstox_substance_id>
DTXSID4021472

> <Canonical_QSARr>
CCOC(=O)N(C)N=O

> <InChI_Code_QSARr>
InChI=1S/C4H8N2O3/c1-3-9-4(7)6(2)5-8/h3H2,1-2H3

> <InChI Key_QSARr>
CAUBWLYZCDDYEF-UHFFFAOYSA-N

> <Salt_Solvent>
?

> <LogVP>
0.0719

$$$$
101625
  -INDIGO-08031723152D

 12 11  0  0  0  0  0  0  0  0999 V2000
    2.7712    0.0000    0.0000 C   0  0  0  0  0  0  0  0  0  0  0  0
    2.7712    1.6000    0.0000 O   0  0  0  0  0  0  0  0  0  0  0  0
    4.1569   -0.8000    0.0000 O   0  0  0  0  0  0  0  0  0  0  0  0
    5.5425    0.0000    0.0000 C   0  0  0  0  0  0  0  0  0  0  0  0
    6.9282    0.8000    0.0000 H   0  0  0  0  0  0  0  0  0  0  0  0
    6.9282   -0.8000    0.0000 H   0  0  0  0  0  0  0  0  0  0  0  0
    5.5425    1.6000    0.0000 H   0  0  0  0  0  0  0  0  0  0  0  0
    1.3856   -0.8000    0.0000 O   0  0  0  0  0  0  0  0  0  0  0  0
   -0.0001    0.0000    0.0000 C   0  0  0  0  0  0  0  0  0  0  0  0
   -1.3856    0.8000    0.0000 H   0  0  0  0  0  0  0  0  0  0  0  0
   -0.0001    1.6000    0.0000 H   0  0  0  0  0  0  0  0  0  0  0  0
   -1.3856   -0.8000    0.0000 H   0  0  0  0  0  0  0  0  0  0  0  0
  1  2  2  0  0  0  0
  1  3  1  0  0  0  0
  3  4  1  0  0  0  0
  4  5  1  0  0  0  0
  4  6  1  0  0  0  0
  4  7  1  0  0  0  0
  1  8  1  0  0  0  0
  8  9  1  0  0  0  0
  9 10  1  0  0  0  0
  9 11  1  0  0  0  0
  9 12  1  0  0  0  0
M  END
> <ChemID>
101625

> <source_casrn>
616-38-6

> <CAS>
616-38-6

> <SMILES>
COC(=O)OC

> <NAME>
Carbonic acid, dimethyl ester

> <preferred_name>
Dimethyl carbonate

> <iupac>
dimethyl carbonate

> <MPID>
26223

> <dsstox_substance_id>
DTXSID9029192

> <Canonical_QSARr>
COC(=O)OC

> <InChI_Code_QSARr>
InChI=1S/C3H6O3/c1-5-3(4)6-2/h1-2H3

> <InChI Key_QSARr>
IEJIGPNLZYLLBP-UHFFFAOYSA-N

> <Salt_Solvent>
?

> <LogVP>
1.7435

$$$$
101629
  -INDIGO-08031723152D

 23 22  0  0  0  0  0  0  0  0999 V2000
    1.3856    0.8000    0.0000 C   0  0  0  0  0  0  0  0  0  0  0  0
    1.3856    2.4000    0.0000 O   0  0  0  0  0  0  0  0  0  0  0  0
    2.7713   -0.0000    0.0000 O   0  0  0  0  0  0  0  0  0  0  0  0
    4.1570    0.8000    0.0000 C   0  0  0  0  0  0  0  0  0  0  0  0
    3.3569    2.1856    0.0000 H   0  0  0  0  0  0  0  0  0  0  0  0
    5.5426    1.6000    0.0000 C   0  0  0  0  0  0  0  0  0  0  0  0
    6.9282    2.4000    0.0000 H   0  0  0  0  0  0  0  0  0  0  0  0
    6.9282    0.8000    0.0000 H   0  0  0  0  0  0  0  0  0  0  0  0
    5.5426    3.2000    0.0000 H   0  0  0  0  0  0  0  0  0  0  0  0
    4.9569   -0.5856    0.0000 C   0  0  0  0  0  0  0  0  0  0  0  0
    5.7569   -1.9713    0.0000 H   0  0  0  0  0  0  0  0  0  0  0  0
    4.1570   -1.9713    0.0000 H   0  0  0  0  0  0  0  0  0  0  0  0
    6.5569   -0.5856    0.0000 H   0  0  0  0  0  0  0  0  0  0  0  0
   -0.0000   -0.0000    0.0000 C   0  0  0  0  0  0  0  0  0  0  0  0
    0.8001   -1.3856    0.0000 H   0  0  0  0  0  0  0  0  0  0  0  0
   -1.3857   -0.8000    0.0000 C   0  0  0  0  0  0  0  0  0  0  0  0
   -2.7713   -1.6000    0.0000 H   0  0  0  0  0  0  0  0  0  0  0  0
   -1.3857   -2.4000    0.0000 H   0  0  0  0  0  0  0  0  0  0  0  0
   -2.7713   -0.0000    0.0000 H   0  0  0  0  0  0  0  0  0  0  0  0
   -0.8000    1.3856    0.0000 C   0  0  0  0  0  0  0  0  0  0  0  0
   -1.6000    2.7713    0.0000 H   0  0  0  0  0  0  0  0  0  0  0  0
   -0.0000    2.7713    0.0000 H   0  0  0  0  0  0  0  0  0  0  0  0
   -2.3999    1.3856    0.0000 H   0  0  0  0  0  0  0  0  0  0  0  0
  1  2  2  0  0  0  0
  1  3  1  0  0  0  0
  3  4  1  0  0  0  0
  4  5  1  0  0  0  0
  4  6  1  0  0  0  0
  6  7  1  0  0  0  0
  6  8  1  0  0  0  0
  6  9  1  0  0  0  0
  4 10  1  0  0  0  0
 10 11  1  0  0  0  0
 10 12  1  0  0  0  0
 10 13  1  0  0  0  0
  1 14  1  0  0  0  0
 14 15  1  0  0  0  0
 14 16  1  0  0  0  0
 16 17  1  0  0  0  0
 16 18  1  0  0  0  0
 16 19  1  0  0  0  0
 14 20  1  0  0  0  0
 20 21  1  0  0  0  0
 20 22  1  0  0  0  0
 20 23  1  0  0  0  0
M  END
> <ChemID>
101629

> <source_casrn>
617-50-5

> <CAS>
NOCAS_862297

> <SMILES>
CC(C)C(=O)OC(C)C

> <NAME>
ISOPROPYL ISOBUTYRATE

> <preferred_name>


> <iupac>


> <MPID>
26227

> <dsstox_substance_id>
DTXSID10862297

> <Canonical_QSARr>
CC(C)C(=O)OC(C)C

> <InChI_Code_QSARr>
InChI=1S/C7H14O2/c1-5(2)7(8)9-6(3)4/h5-6H,1-4H3

> <InChI Key_QSARr>
WVRPFQGZHKZCEB-UHFFFAOYSA-N

> <Salt_Solvent>
?

> <LogVP>
1.2045

$$$$
101633
  -INDIGO-08031723152D

 22 22  0  0  0  0  0  0  0  0999 V2000
    4.0000    1.3857    0.0000 C   0  0  0  0  0  0  0  0  0  0  0  0
    4.8000    2.7713    0.0000 O   0  0  0  0  0  0  0  0  0  0  0  0
    6.4000    2.7713    0.0000 H   0  0  0  0  0  0  0  0  0  0  0  0
    2.4000    1.3857    0.0000 C   0  0  0  0  0  0  0  0  0  0  0  0
    1.6000    2.7713    0.0000 H   0  0  0  0  0  0  0  0  0  0  0  0
    1.6000    0.0000    0.0000 C   0  0  0  0  0  0  0  0  0  0  0  0
    0.0001    0.0000    0.0000 C   0  0  0  0  0  0  0  0  0  0  0  0
    0.0001    1.6000    0.0000 H   0  0  0  0  0  0  0  0  0  0  0  0
   -1.5757    0.2778    0.0000 C   0  0  0  0  0  0  0  0  0  0  0  0
   -3.1514    0.5557    0.0000 H   0  0  0  0  0  0  0  0  0  0  0  0
   -2.1229    1.7813    0.0000 H   0  0  0  0  0  0  0  0  0  0  0  0
   -2.6041   -0.9478    0.0000 H   0  0  0  0  0  0  0  0  0  0  0  0
    0.0001   -1.6000    0.0000 C   0  0  0  0  0  0  0  0  0  0  0  0
    0.0001   -3.2000    0.0000 H   0  0  0  0  0  0  0  0  0  0  0  0
   -1.3857   -2.4000    0.0000 H   0  0  0  0  0  0  0  0  0  0  0  0
   -1.3857   -0.8000    0.0000 H   0  0  0  0  0  0  0  0  0  0  0  0
    2.4000   -1.3856    0.0000 C   0  0  0  0  0  0  0  0  0  0  0  0
    1.6000   -2.7713    0.0000 H   0  0  0  0  0  0  0  0  0  0  0  0
    4.0000   -1.3856    0.0000 C   0  0  0  0  0  0  0  0  0  0  0  0
    4.8000   -2.7713    0.0000 H   0  0  0  0  0  0  0  0  0  0  0  0
    4.8000    0.0000    0.0000 C   0  0  0  0  0  0  0  0  0  0  0  0
    6.4000    0.0000    0.0000 H   0  0  0  0  0  0  0  0  0  0  0  0
  1  2  1  0  0  0  0
  2  3  1  0  0  0  0
  1  4  1  0  0  0  0
  4  5  1  0  0  0  0
  4  6  2  0  0  0  0
  6  7  1  0  0  0  0
  7  8  1  0  0  0  0
  7  9  1  0  0  0  0
  9 10  1  0  0  0  0
  9 11  1  0  0  0  0
  9 12  1  0  0  0  0
  7 13  1  0  0  0  0
 13 14  1  0  0  0  0
 13 15  1  0  0  0  0
 13 16  1  0  0  0  0
  6 17  1  0  0  0  0
 17 18  1  0  0  0  0
 17 19  2  0  0  0  0
 19 20  1  0  0  0  0
 19 21  1  0  0  0  0
 21  1  2  0  0  0  0
 21 22  1  0  0  0  0
M  END
> <ChemID>
101633

> <source_casrn>
618-45-1

> <CAS>
618-45-1

> <SMILES>
CC(C)c1cccc(O)c1

> <NAME>
M-ISOPROPYLPHENOL

> <preferred_name>
3-Isopropylphenol

> <iupac>
3-(propan-2-yl)phenol

> <MPID>
26231

> <dsstox_substance_id>
DTXSID0044571

> <Canonical_QSARr>
CC(C)c1cccc(O)c1

> <InChI_Code_QSARr>
InChI=1S/C9H12O/c1-7(2)8-4-3-5-9(10)6-8/h3-7,10H,1-2H3

> <InChI Key_QSARr>
VLJSLTNSFSOYQR-UHFFFAOYSA-N

> <Salt_Solvent>
?

> <LogVP>
-1.158

$$$$
101637
  -INDIGO-08031723152D

 15 15  0  0  0  0  0  0  0  0999 V2000
    0.0000   -0.0000    0.0000 C   0  0  0  0  0  0  0  0  0  0  0  0
   -0.8001    1.3856    0.0000 C   0  0  0  0  0  0  0  0  0  0  0  0
    0.0000    2.7713    0.0000 H   0  0  0  0  0  0  0  0  0  0  0  0
   -2.4001    1.3856    0.0000 C   0  0  0  0  0  0  0  0  0  0  0  0
   -3.2000    2.7713    0.0000 H   0  0  0  0  0  0  0  0  0  0  0  0
   -3.2000   -0.0000    0.0000 C   0  0  0  0  0  0  0  0  0  0  0  0
   -4.8000   -0.0000    0.0000 H   0  0  0  0  0  0  0  0  0  0  0  0
   -2.4001   -1.3856    0.0000 C   0  0  0  0  0  0  0  0  0  0  0  0
   -3.2000   -2.7713    0.0000 H   0  0  0  0  0  0  0  0  0  0  0  0
   -0.8001   -1.3856    0.0000 C   0  0  0  0  0  0  0  0  0  0  0  0
    0.0000   -2.7713    0.0000 H   0  0  0  0  0  0  0  0  0  0  0  0
    1.6000   -0.0000    0.0000 C   0  0  0  0  0  0  0  0  0  0  0  0
    3.2000   -0.0000    0.0000 H   0  0  0  0  0  0  0  0  0  0  0  0
    2.4001   -1.3856    0.0000 H   0  0  0  0  0  0  0  0  0  0  0  0
    2.4001    1.3856    0.0000 I   0  0  0  0  0  0  0  0  0  0  0  0
  1  2  1  0  0  0  0
  2  3  1  0  0  0  0
  2  4  2  0  0  0  0
  4  5  1  0  0  0  0
  4  6  1  0  0  0  0
  6  7  1  0  0  0  0
  6  8  2  0  0  0  0
  8  9  1  0  0  0  0
  8 10  1  0  0  0  0
 10  1  2  0  0  0  0
 10 11  1  0  0  0  0
  1 12  1  0  0  0  0
 12 13  1  0  0  0  0
 12 14  1  0  0  0  0
 12 15  1  0  0  0  0
M  END
> <ChemID>
101637

> <source_casrn>
620-05-3

> <CAS>
620-05-3

> <SMILES>
ICc1ccccc1

> <NAME>
BENZYL IODIDE

> <preferred_name>
Benzene, (iodomethyl)-

> <iupac>
iodomethylbenzene

> <MPID>
26235

> <dsstox_substance_id>
DTXSID6060715

> <Canonical_QSARr>
ICc1ccccc1

> <InChI_Code_QSARr>
InChI=1S/C7H7I/c8-6-7-4-2-1-3-5-7/h1-5H,6H2

> <InChI Key_QSARr>
XJTQJERLRPWUGL-UHFFFAOYSA-N

> <Salt_Solvent>
?

> <LogVP>
-0.9031

$$$$
101646
  -INDIGO-08031723152D

 17 17  0  0  0  0  0  0  0  0999 V2000
   -5.6000   -1.3856    0.0000 S   0  0  0  0  0  0  0  0  0  0  0  0
   -4.0000   -1.3856    0.0000 C   0  0  0  0  0  0  0  0  0  0  0  0
   -2.3999   -1.3856    0.0000 N   0  0  0  0  0  0  0  0  0  0  0  0
   -1.6000   -0.0000    0.0000 C   0  0  0  0  0  0  0  0  0  0  0  0
   -1.8088    1.5863    0.0000 H   0  0  0  0  0  0  0  0  0  0  0  0
   -2.8694    0.9740    0.0000 H   0  0  0  0  0  0  0  0  0  0  0  0
   -0.0000   -0.0000    0.0000 C   0  0  0  0  0  0  0  0  0  0  0  0
    0.8000    1.3856    0.0000 C   0  0  0  0  0  0  0  0  0  0  0  0
   -0.0000    2.7713    0.0000 H   0  0  0  0  0  0  0  0  0  0  0  0
    2.4001    1.3856    0.0000 C   0  0  0  0  0  0  0  0  0  0  0  0
    3.2000    2.7713    0.0000 H   0  0  0  0  0  0  0  0  0  0  0  0
    3.2000   -0.0000    0.0000 C   0  0  0  0  0  0  0  0  0  0  0  0
    4.8000   -0.0000    0.0000 H   0  0  0  0  0  0  0  0  0  0  0  0
    2.4001   -1.3856    0.0000 C   0  0  0  0  0  0  0  0  0  0  0  0
    3.2000   -2.7713    0.0000 H   0  0  0  0  0  0  0  0  0  0  0  0
    0.8000   -1.3856    0.0000 C   0  0  0  0  0  0  0  0  0  0  0  0
   -0.0000   -2.7713    0.0000 H   0  0  0  0  0  0  0  0  0  0  0  0
  1  2  2  0  0  0  0
  2  3  2  0  0  0  0
  3  4  1  0  0  0  0
  4  5  1  0  0  0  0
  4  6  1  0  0  0  0
  4  7  1  0  0  0  0
  7  8  1  0  0  0  0
  8  9  1  0  0  0  0
  8 10  2  0  0  0  0
 10 11  1  0  0  0  0
 10 12  1  0  0  0  0
 12 13  1  0  0  0  0
 12 14  2  0  0  0  0
 14 15  1  0  0  0  0
 14 16  1  0  0  0  0
 16  7  2  0  0  0  0
 16 17  1  0  0  0  0
M  END
> <ChemID>
101646

> <source_casrn>
622-78-6

> <CAS>
622-78-6

> <SMILES>
S=C=NCc1ccccc1

> <NAME>
BENZYLISOTHIOCYANATE

> <preferred_name>
Benzyl isothiocyanate

> <iupac>
(isothiocyanatomethyl)benzene

> <MPID>
26240

> <dsstox_substance_id>
DTXSID0020155

> <Canonical_QSARr>
S=C=NCc1ccccc1

> <InChI_Code_QSARr>
InChI=1S/C8H7NS/c10-7-9-6-8-4-2-1-3-5-8/h1-5H,6H2

> <InChI Key_QSARr>
MDKCFLQDBWCQCV-UHFFFAOYSA-N

> <Salt_Solvent>
?

> <LogVP>
-1.8142

$$$$
101650
  -INDIGO-08031723152D

 17 16  0  0  0  0  0  0  0  0999 V2000
    2.7713    0.0000    0.0000 C   0  0  0  0  0  0  0  0  0  0  0  0
    2.7713   -1.6000    0.0000 O   0  0  0  0  0  0  0  0  0  0  0  0
    4.1570    0.8000    0.0000 O   0  0  0  0  0  0  0  0  0  0  0  0
    5.5426    0.0000    0.0000 C   0  0  0  0  0  0  0  0  0  0  0  0
    6.9282   -0.8000    0.0000 H   0  0  0  0  0  0  0  0  0  0  0  0
    6.9282    0.8000    0.0000 H   0  0  0  0  0  0  0  0  0  0  0  0
    5.5426   -1.6000    0.0000 H   0  0  0  0  0  0  0  0  0  0  0  0
    1.3856    0.8000    0.0000 C   0  0  0  0  0  0  0  0  0  0  0  0
    0.7733    2.2782    0.0000 H   0  0  0  0  0  0  0  0  0  0  0  0
    1.9979    2.2782    0.0000 H   0  0  0  0  0  0  0  0  0  0  0  0
   -0.0000    0.0000    0.0000 C   0  0  0  0  0  0  0  0  0  0  0  0
    0.6123   -1.4782    0.0000 H   0  0  0  0  0  0  0  0  0  0  0  0
   -0.6123   -1.4782    0.0000 H   0  0  0  0  0  0  0  0  0  0  0  0
   -1.3857    0.8000    0.0000 C   0  0  0  0  0  0  0  0  0  0  0  0
   -2.7713    1.6000    0.0000 H   0  0  0  0  0  0  0  0  0  0  0  0
   -2.7713    0.0000    0.0000 H   0  0  0  0  0  0  0  0  0  0  0  0
   -1.3857    2.4000    0.0000 H   0  0  0  0  0  0  0  0  0  0  0  0
  1  2  2  0  0  0  0
  1  3  1  0  0  0  0
  3  4  1  0  0  0  0
  4  5  1  0  0  0  0
  4  6  1  0  0  0  0
  4  7  1  0  0  0  0
  1  8  1  0  0  0  0
  8  9  1  0  0  0  0
  8 10  1  0  0  0  0
  8 11  1  0  0  0  0
 11 12  1  0  0  0  0
 11 13  1  0  0  0  0
 11 14  1  0  0  0  0
 14 15  1  0  0  0  0
 14 16  1  0  0  0  0
 14 17  1  0  0  0  0
M  END
> <ChemID>
101650

> <source_casrn>
623-42-7

> <CAS>
623-42-7

> <SMILES>
CCCC(=O)OC

> <NAME>
METHYLBUTYRATE

> <preferred_name>
Methyl butyrate

> <iupac>
methyl butanoate

> <MPID>
26244

> <dsstox_substance_id>
DTXSID5047083

> <Canonical_QSARr>
CCCC(=O)OC

> <InChI_Code_QSARr>
InChI=1S/C5H10O2/c1-3-4-5(6)7-2/h3-4H2,1-2H3

> <InChI Key_QSARr>
UUIQMZJEGPQKFD-UHFFFAOYSA-N

> <Salt_Solvent>
?

> <LogVP>
1.5089

$$$$
101655
  -INDIGO-08031723152D

 18 17  0  0  0  0  0  0  0  0999 V2000
   -1.3856   -0.8000    0.0000 C   0  0  0  0  0  0  0  0  0  0  0  0
    0.0001    0.0000    0.0000 C   0  0  0  0  0  0  0  0  0  0  0  0
    0.0001    1.6000    0.0000 H   0  0  0  0  0  0  0  0  0  0  0  0
    1.3856   -0.8000    0.0000 C   0  0  0  0  0  0  0  0  0  0  0  0
    1.3856   -2.4000    0.0000 H   0  0  0  0  0  0  0  0  0  0  0  0
    2.7713    0.0000    0.0000 C   0  0  0  0  0  0  0  0  0  0  0  0
    2.7713    1.6000    0.0000 O   0  0  0  0  0  0  0  0  0  0  0  0
    4.1570   -0.8000    0.0000 O   0  0  0  0  0  0  0  0  0  0  0  0
    5.5425    0.0000    0.0000 C   0  0  0  0  0  0  0  0  0  0  0  0
    6.9282    0.8000    0.0000 H   0  0  0  0  0  0  0  0  0  0  0  0
    6.9282   -0.8000    0.0000 H   0  0  0  0  0  0  0  0  0  0  0  0
    5.5425    1.6000    0.0000 H   0  0  0  0  0  0  0  0  0  0  0  0
   -1.3856   -2.4000    0.0000 O   0  0  0  0  0  0  0  0  0  0  0  0
   -2.7713    0.0000    0.0000 O   0  0  0  0  0  0  0  0  0  0  0  0
   -4.1569   -0.8000    0.0000 C   0  0  0  0  0  0  0  0  0  0  0  0
   -5.5426   -1.6000    0.0000 H   0  0  0  0  0  0  0  0  0  0  0  0
   -5.5426    0.0000    0.0000 H   0  0  0  0  0  0  0  0  0  0  0  0
   -4.1569   -2.4000    0.0000 H   0  0  0  0  0  0  0  0  0  0  0  0
  1  2  1  0  0  0  0
  2  3  1  0  0  0  0
  2  4  2  0  0  0  0
  4  5  1  0  0  0  0
  4  6  1  0  0  0  0
  6  7  2  0  0  0  0
  6  8  1  0  0  0  0
  8  9  1  0  0  0  0
  9 10  1  0  0  0  0
  9 11  1  0  0  0  0
  9 12  1  0  0  0  0
  1 13  2  0  0  0  0
  1 14  1  0  0  0  0
 14 15  1  0  0  0  0
 15 16  1  0  0  0  0
 15 17  1  0  0  0  0
 15 18  1  0  0  0  0
M  END
> <ChemID>
101655

> <source_casrn>
624-48-6

> <CAS>
624-48-6

> <SMILES>
COC(=O)/C=C\C(=O)OC

> <NAME>
METHYL MALEATE

> <preferred_name>
Dimethyl maleate

> <iupac>
dimethyl (2Z)-but-2-enedioate

> <MPID>
26248

> <dsstox_substance_id>
DTXSID4040765

> <Canonical_QSARr>
COC(=O)C=CC(=O)OC

> <InChI_Code_QSARr>
InChI=1S/C6H8O4/c1-9-5(7)3-4-6(8)10-2/h3-4H,1-2H3/b4-3+

> <InChI Key_QSARr>
LDCRTTXIJACKKU-ONEGZZNKSA-N

> <Salt_Solvent>
?

> <LogVP>
-0.5229

$$$$
101660
  -INDIGO-08031723152D

 12 11  0  0  0  0  0  0  0  0999 V2000
    0.0000    0.0000    0.0000 C   0  0  0  0  0  0  0  0  0  0  0  0
    0.6123   -1.4782    0.0000 H   0  0  0  0  0  0  0  0  0  0  0  0
   -0.6123   -1.4782    0.0000 H   0  0  0  0  0  0  0  0  0  0  0  0
   -1.3856    0.8000    0.0000 S   0  0  0  0  0  0  0  0  0  0  0  0
   -2.7713    0.0000    0.0000 C   0  0  0  0  0  0  0  0  0  0  0  0
   -4.1569   -0.8000    0.0000 H   0  0  0  0  0  0  0  0  0  0  0  0
   -4.1569    0.8000    0.0000 H   0  0  0  0  0  0  0  0  0  0  0  0
   -2.7713   -1.6000    0.0000 H   0  0  0  0  0  0  0  0  0  0  0  0
    1.3856    0.8000    0.0000 C   0  0  0  0  0  0  0  0  0  0  0  0
    2.7713    1.6000    0.0000 H   0  0  0  0  0  0  0  0  0  0  0  0
    2.7713    0.0000    0.0000 H   0  0  0  0  0  0  0  0  0  0  0  0
    1.3856    2.4000    0.0000 H   0  0  0  0  0  0  0  0  0  0  0  0
  1  2  1  0  0  0  0
  1  3  1  0  0  0  0
  1  4  1  0  0  0  0
  4  5  1  0  0  0  0
  5  6  1  0  0  0  0
  5  7  1  0  0  0  0
  5  8  1  0  0  0  0
  1  9  1  0  0  0  0
  9 10  1  0  0  0  0
  9 11  1  0  0  0  0
  9 12  1  0  0  0  0
M  END
> <ChemID>
101660

> <source_casrn>
624-89-5

> <CAS>
624-89-5

> <SMILES>
CCSC

> <NAME>
ETHYL METHYL SULFIDE

> <preferred_name>
Ethyl methyl sulfide

> <iupac>
methylsulfanylethane

> <MPID>
26252

> <dsstox_substance_id>
DTXSID3060794

> <Canonical_QSARr>
CCSC

> <InChI_Code_QSARr>
InChI=1S/C3H8S/c1-3-4-2/h3H2,1-2H3

> <InChI Key_QSARr>
WXEHBUMAEPOYKP-UHFFFAOYSA-N

> <Salt_Solvent>
?

> <LogVP>
2.2041

$$$$
101664
  -INDIGO-08031723152D

 31 30  0  0  0  0  0  0  0  0999 V2000
    4.1568    0.8000    0.0000 S   0  0  0  0  0  0  0  0  0  0  0  0
    5.5426    1.6000    0.0000 O   0  0  0  0  0  0  0  0  0  0  0  0
    6.9282    0.8000    0.0000 C   0  0  0  0  0  0  0  0  0  0  0  0
    6.3160   -0.6782    0.0000 H   0  0  0  0  0  0  0  0  0  0  0  0
    7.5404   -0.6782    0.0000 H   0  0  0  0  0  0  0  0  0  0  0  0
    8.3138    1.6000    0.0000 C   0  0  0  0  0  0  0  0  0  0  0  0
    8.9260    3.0782    0.0000 H   0  0  0  0  0  0  0  0  0  0  0  0
    7.7015    3.0782    0.0000 H   0  0  0  0  0  0  0  0  0  0  0  0
    9.6996    0.8000    0.0000 C   0  0  0  0  0  0  0  0  0  0  0  0
    9.0871   -0.6782    0.0000 H   0  0  0  0  0  0  0  0  0  0  0  0
   10.3118   -0.6782    0.0000 H   0  0  0  0  0  0  0  0  0  0  0  0
   11.0852    1.6000    0.0000 C   0  0  0  0  0  0  0  0  0  0  0  0
   12.4708    2.4000    0.0000 H   0  0  0  0  0  0  0  0  0  0  0  0
   12.4708    0.8000    0.0000 H   0  0  0  0  0  0  0  0  0  0  0  0
   11.0852    3.2000    0.0000 H   0  0  0  0  0  0  0  0  0  0  0  0
    2.7712    0.0000    0.0000 O   0  0  0  0  0  0  0  0  0  0  0  0
    1.3856    0.8000    0.0000 C   0  0  0  0  0  0  0  0  0  0  0  0
    1.9979    2.2782    0.0000 H   0  0  0  0  0  0  0  0  0  0  0  0
    0.7734    2.2782    0.0000 H   0  0  0  0  0  0  0  0  0  0  0  0
    0.0001    0.0000    0.0000 C   0  0  0  0  0  0  0  0  0  0  0  0
   -0.6122   -1.4782    0.0000 H   0  0  0  0  0  0  0  0  0  0  0  0
    0.6123   -1.4782    0.0000 H   0  0  0  0  0  0  0  0  0  0  0  0
   -1.3855    0.8000    0.0000 C   0  0  0  0  0  0  0  0  0  0  0  0
   -0.7733    2.2782    0.0000 H   0  0  0  0  0  0  0  0  0  0  0  0
   -1.9980    2.2782    0.0000 H   0  0  0  0  0  0  0  0  0  0  0  0
   -2.7713    0.0000    0.0000 C   0  0  0  0  0  0  0  0  0  0  0  0
   -4.1569   -0.8000    0.0000 H   0  0  0  0  0  0  0  0  0  0  0  0
   -4.1569    0.8000    0.0000 H   0  0  0  0  0  0  0  0  0  0  0  0
   -2.7713   -1.6000    0.0000 H   0  0  0  0  0  0  0  0  0  0  0  0
    4.9570   -0.5857    0.0000 O   0  0  0  0  0  0  0  0  0  0  0  0
    3.3568    2.1857    0.0000 O   0  0  0  0  0  0  0  0  0  0  0  0
  1  2  1  0  0  0  0
  2  3  1  0  0  0  0
  3  4  1  0  0  0  0
  3  5  1  0  0  0  0
  3  6  1  0  0  0  0
  6  7  1  0  0  0  0
  6  8  1  0  0  0  0
  6  9  1  0  0  0  0
  9 10  1  0  0  0  0
  9 11  1  0  0  0  0
  9 12  1  0  0  0  0
 12 13  1  0  0  0  0
 12 14  1  0  0  0  0
 12 15  1  0  0  0  0
  1 16  1  0  0  0  0
 16 17  1  0  0  0  0
 17 18  1  0  0  0  0
 17 19  1  0  0  0  0
 17 20  1  0  0  0  0
 20 21  1  0  0  0  0
 20 22  1  0  0  0  0
 20 23  1  0  0  0  0
 23 24  1  0  0  0  0
 23 25  1  0  0  0  0
 23 26  1  0  0  0  0
 26 27  1  0  0  0  0
 26 28  1  0  0  0  0
 26 29  1  0  0  0  0
  1 30  2  0  0  0  0
  1 31  2  0  0  0  0
M  END
> <ChemID>
101664

> <source_casrn>
625-22-9

> <CAS>
625-22-9

> <SMILES>
CCCCOS(=O)(=O)OCCCC

> <NAME>
Sulfuric acid, dibutyl ester

> <preferred_name>
Sulfuric acid, dibutyl ester

> <iupac>
Dibutyl sulfate

> <MPID>
26256

> <dsstox_substance_id>
DTXSID80211536

> <Canonical_QSARr>
CCCCOS(=O)(=O)OCCCC

> <InChI_Code_QSARr>
InChI=1S/C8H18O4S/c1-3-5-7-11-13(9,10)12-8-6-4-2/h3-8H2,1-2H3

> <InChI Key_QSARr>
LMEDOLJKVASKTP-UHFFFAOYSA-N

> <Salt_Solvent>
?

> <LogVP>
-1.9281

$$$$
101668
  -INDIGO-08031723152D

 18 17  0  0  0  0  0  0  0  0999 V2000
   -2.4000    1.3856    0.0000 O   0  0  0  0  0  0  0  0  0  0  0  0
   -1.6000    0.0000    0.0000 C   0  0  0  0  0  0  0  0  0  0  0  0
   -1.8089   -1.5863    0.0000 H   0  0  0  0  0  0  0  0  0  0  0  0
   -2.8694   -0.9740    0.0000 H   0  0  0  0  0  0  0  0  0  0  0  0
   -0.0000    0.0000    0.0000 C   0  0  0  0  0  0  0  0  0  0  0  0
   -0.0000   -1.6000    0.0000 H   0  0  0  0  0  0  0  0  0  0  0  0
    1.6001    0.0000    0.0000 C   0  0  0  0  0  0  0  0  0  0  0  0
    3.2000    0.0000    0.0000 H   0  0  0  0  0  0  0  0  0  0  0  0
    2.4000   -1.3856    0.0000 H   0  0  0  0  0  0  0  0  0  0  0  0
    2.4000    1.3856    0.0000 H   0  0  0  0  0  0  0  0  0  0  0  0
   -0.0000    1.6000    0.0000 C   0  0  0  0  0  0  0  0  0  0  0  0
   -0.0000    3.2000    0.0000 H   0  0  0  0  0  0  0  0  0  0  0  0
   -1.3856    2.4000    0.0000 H   0  0  0  0  0  0  0  0  0  0  0  0
    1.3856    2.4000    0.0000 H   0  0  0  0  0  0  0  0  0  0  0  0
   -4.0001    1.3856    0.0000 C   0  0  0  0  0  0  0  0  0  0  0  0
   -5.6000    1.3856    0.0000 H   0  0  0  0  0  0  0  0  0  0  0  0
   -4.8000    2.7713    0.0000 H   0  0  0  0  0  0  0  0  0  0  0  0
   -4.8000    0.0000    0.0000 H   0  0  0  0  0  0  0  0  0  0  0  0
  1  2  1  0  0  0  0
  2  3  1  0  0  0  0
  2  4  1  0  0  0  0
  2  5  1  0  0  0  0
  5  6  1  0  0  0  0
  5  7  1  0  0  0  0
  7  8  1  0  0  0  0
  7  9  1  0  0  0  0
  7 10  1  0  0  0  0
  5 11  1  0  0  0  0
 11 12  1  0  0  0  0
 11 13  1  0  0  0  0
 11 14  1  0  0  0  0
  1 15  1  0  0  0  0
 15 16  1  0  0  0  0
 15 17  1  0  0  0  0
 15 18  1  0  0  0  0
M  END
> <ChemID>
101668

> <source_casrn>
625-44-5

> <CAS>
625-44-5

> <SMILES>
COCC(C)C

> <NAME>
METHYL ISOBUTYL ETHER

> <preferred_name>
Ether, isobutyl methyl

> <iupac>
1-Methoxy-2-methylpropane

> <MPID>
26260

> <dsstox_substance_id>
DTXSID70211540

> <Canonical_QSARr>
COCC(C)C

> <InChI_Code_QSARr>
InChI=1S/C5H12O/c1-5(2)4-6-3/h5H,4H2,1-3H3

> <InChI Key_QSARr>
ZYVYEJXMYBUCMN-UHFFFAOYSA-N

> <Salt_Solvent>
?

> <LogVP>
2.3243

$$$$
101672
  -INDIGO-08031723152D

 16 15  0  0  0  0  0  0  0  0999 V2000
    2.4513   -2.0569    0.0000 O   0  0  0  0  0  0  0  0  0  0  0  0
    2.7292   -0.4813    0.0000 N   0  0  0  0  0  0  0  0  0  0  0  0
    4.2327    0.0660    0.0000 O   0  0  0  0  0  0  0  0  0  0  0  0
    1.5036    0.5472    0.0000 C   0  0  0  0  0  0  0  0  0  0  0  0
    1.1572    2.1093    0.0000 H   0  0  0  0  0  0  0  0  0  0  0  0
    2.3631    1.8967    0.0000 H   0  0  0  0  0  0  0  0  0  0  0  0
   -0.0000    0.0000    0.0000 C   0  0  0  0  0  0  0  0  0  0  0  0
    0.8000   -1.3856    0.0000 H   0  0  0  0  0  0  0  0  0  0  0  0
   -1.3857   -0.8000    0.0000 C   0  0  0  0  0  0  0  0  0  0  0  0
   -2.7713   -1.6000    0.0000 H   0  0  0  0  0  0  0  0  0  0  0  0
   -1.3857   -2.4000    0.0000 H   0  0  0  0  0  0  0  0  0  0  0  0
   -2.7713    0.0000    0.0000 H   0  0  0  0  0  0  0  0  0  0  0  0
   -0.8000    1.3856    0.0000 C   0  0  0  0  0  0  0  0  0  0  0  0
   -1.6001    2.7713    0.0000 H   0  0  0  0  0  0  0  0  0  0  0  0
   -0.0000    2.7713    0.0000 H   0  0  0  0  0  0  0  0  0  0  0  0
   -2.4000    1.3856    0.0000 H   0  0  0  0  0  0  0  0  0  0  0  0
  1  2  1  0  0  0  0
  2  3  2  0  0  0  0
  2  4  1  0  0  0  0
  4  5  1  0  0  0  0
  4  6  1  0  0  0  0
  4  7  1  0  0  0  0
  7  8  1  0  0  0  0
  7  9  1  0  0  0  0
  9 10  1  0  0  0  0
  9 11  1  0  0  0  0
  9 12  1  0  0  0  0
  7 13  1  0  0  0  0
 13 14  1  0  0  0  0
 13 15  1  0  0  0  0
 13 16  1  0  0  0  0
M  CHG  2   1  -1   2   1
M  END
> <ChemID>
101672

> <source_casrn>
625-74-1

> <CAS>
625-74-1

> <SMILES>
CC(C)C[N+]([O-])=O

> <NAME>
ISONITROBUTANE

> <preferred_name>
Propane, 2-methyl-1-nitro-

> <iupac>
2-Methyl-1-nitropropane

> <MPID>
26264

> <dsstox_substance_id>
DTXSID90211547

> <Canonical_QSARr>
CC(C)C[N+]([O-])=O

> <InChI_Code_QSARr>
InChI=1S/C4H9NO2/c1-4(2)3-5(6)7/h4H,3H2,1-2H3

> <InChI Key_QSARr>
XFXRMDNWSGXSNJ-UHFFFAOYSA-N

> <Salt_Solvent>
?

> <LogVP>
0.8376

$$$$
101676
  -INDIGO-08031723152D

 12 12  0  0  0  0  0  0  0  0999 V2000
   -0.0000   -0.0000    0.0000 C   0  0  0  0  0  0  0  0  0  0  0  0
    0.8000    1.3856    0.0000 H   0  0  0  0  0  0  0  0  0  0  0  0
    0.8000   -1.3857    0.0000 C   0  0  0  0  0  0  0  0  0  0  0  0
    2.4000   -1.3857    0.0000 Br  0  0  0  0  0  0  0  0  0  0  0  0
   -0.0000   -2.7713    0.0000 C   0  0  0  0  0  0  0  0  0  0  0  0
    0.8000   -4.1569    0.0000 H   0  0  0  0  0  0  0  0  0  0  0  0
   -1.6000   -2.7713    0.0000 C   0  0  0  0  0  0  0  0  0  0  0  0
   -2.4000   -4.1569    0.0000 Br  0  0  0  0  0  0  0  0  0  0  0  0
   -2.4000   -1.3856    0.0000 C   0  0  0  0  0  0  0  0  0  0  0  0
   -4.0000   -1.3856    0.0000 H   0  0  0  0  0  0  0  0  0  0  0  0
   -1.6000   -0.0000    0.0000 C   0  0  0  0  0  0  0  0  0  0  0  0
   -2.4000    1.3856    0.0000 Br  0  0  0  0  0  0  0  0  0  0  0  0
  1  2  1  0  0  0  0
  1  3  1  0  0  0  0
  3  4  1  0  0  0  0
  3  5  2  0  0  0  0
  5  6  1  0  0  0  0
  5  7  1  0  0  0  0
  7  8  1  0  0  0  0
  7  9  2  0  0  0  0
  9 10  1  0  0  0  0
  9 11  1  0  0  0  0
 11  1  2  0  0  0  0
 11 12  1  0  0  0  0
M  END
> <ChemID>
101676

> <source_casrn>
626-39-1

> <CAS>
626-39-1

> <SMILES>
Brc1cc(Br)cc(Br)c1

> <NAME>
1,3,5-TRIBROMOBENZENE

> <preferred_name>
1,3,5-Tribromobenzene

> <iupac>
1,3,5-tribromobenzene

> <MPID>
26268

> <dsstox_substance_id>
DTXSID3052307

> <Canonical_QSARr>
Brc1cc(Br)cc(Br)c1

> <InChI_Code_QSARr>
InChI=1S/C6H3Br3/c7-4-1-5(8)3-6(9)2-4/h1-3H

> <InChI Key_QSARr>
YWDUZLFWHVQCHY-UHFFFAOYSA-N

> <Salt_Solvent>
?

> <LogVP>
-2.8239

$$$$
101680
  -INDIGO-08031723152D

 16 15  0  0  0  0  0  0  0  0999 V2000
    2.7713   -1.6000    0.0000 O   0  0  0  0  0  0  0  0  0  0  0  0
    2.7713   -0.0000    0.0000 N   0  0  0  0  0  0  0  0  0  0  0  0
    4.1569    0.8000    0.0000 O   0  0  0  0  0  0  0  0  0  0  0  0
    1.3856    0.8000    0.0000 C   0  0  0  0  0  0  0  0  0  0  0  0
    1.9979    2.2782    0.0000 H   0  0  0  0  0  0  0  0  0  0  0  0
    0.7734    2.2782    0.0000 H   0  0  0  0  0  0  0  0  0  0  0  0
    0.0001   -0.0000    0.0000 C   0  0  0  0  0  0  0  0  0  0  0  0
   -0.6123   -1.4782    0.0000 H   0  0  0  0  0  0  0  0  0  0  0  0
    0.6123   -1.4782    0.0000 H   0  0  0  0  0  0  0  0  0  0  0  0
   -1.3856    0.8000    0.0000 C   0  0  0  0  0  0  0  0  0  0  0  0
   -0.7734    2.2782    0.0000 H   0  0  0  0  0  0  0  0  0  0  0  0
   -1.9979    2.2782    0.0000 H   0  0  0  0  0  0  0  0  0  0  0  0
   -2.7712   -0.0000    0.0000 C   0  0  0  0  0  0  0  0  0  0  0  0
   -4.1569   -0.8000    0.0000 H   0  0  0  0  0  0  0  0  0  0  0  0
   -4.1569    0.8000    0.0000 H   0  0  0  0  0  0  0  0  0  0  0  0
   -2.7713   -1.6000    0.0000 H   0  0  0  0  0  0  0  0  0  0  0  0
  1  2  1  0  0  0  0
  2  3  2  0  0  0  0
  2  4  1  0  0  0  0
  4  5  1  0  0  0  0
  4  6  1  0  0  0  0
  4  7  1  0  0  0  0
  7  8  1  0  0  0  0
  7  9  1  0  0  0  0
  7 10  1  0  0  0  0
 10 11  1  0  0  0  0
 10 12  1  0  0  0  0
 10 13  1  0  0  0  0
 13 14  1  0  0  0  0
 13 15  1  0  0  0  0
 13 16  1  0  0  0  0
M  CHG  2   1  -1   2   1
M  END
> <ChemID>
101680

> <source_casrn>
627-05-4

> <CAS>
627-05-4

> <SMILES>
CCCC[N+]([O-])=O

> <NAME>
1-NITROBUTANE

> <preferred_name>
1-Nitrobutane

> <iupac>
1-nitrobutane

> <MPID>
26272

> <dsstox_substance_id>
DTXSID8020967

> <Canonical_QSARr>
CCCC[N+]([O-])=O

> <InChI_Code_QSARr>
InChI=1S/C4H9NO2/c1-2-3-4-5(6)7/h2-4H2,1H3

> <InChI Key_QSARr>
NALZTFARIYUCBY-UHFFFAOYSA-N

> <Salt_Solvent>
?

> <LogVP>
0.5786

$$$$
101684
  -INDIGO-08031723152D

 13 12  0  0  0  0  0  0  0  0999 V2000
   -1.3857   -0.8000    0.0000 C   0  0  0  0  0  0  0  0  0  0  0  0
   -0.7733   -2.2782    0.0000 H   0  0  0  0  0  0  0  0  0  0  0  0
   -1.9979   -2.2782    0.0000 H   0  0  0  0  0  0  0  0  0  0  0  0
    0.0000    0.0000    0.0000 C   0  0  0  0  0  0  0  0  0  0  0  0
   -0.6122    1.4782    0.0000 H   0  0  0  0  0  0  0  0  0  0  0  0
    0.6122    1.4782    0.0000 H   0  0  0  0  0  0  0  0  0  0  0  0
    1.3856   -0.8000    0.0000 C   0  0  0  0  0  0  0  0  0  0  0  0
    2.7713   -1.6000    0.0000 H   0  0  0  0  0  0  0  0  0  0  0  0
    2.7713    0.0000    0.0000 H   0  0  0  0  0  0  0  0  0  0  0  0
    1.3856   -2.4000    0.0000 H   0  0  0  0  0  0  0  0  0  0  0  0
   -2.7713    0.0000    0.0000 C   0  0  0  0  0  0  0  0  0  0  0  0
   -4.1569    0.8000    0.0000 C   0  0  0  0  0  0  0  0  0  0  0  0
   -5.5426    1.6000    0.0000 H   0  0  0  0  0  0  0  0  0  0  0  0
  1  2  1  0  0  0  0
  1  3  1  0  0  0  0
  1  4  1  0  0  0  0
  4  5  1  0  0  0  0
  4  6  1  0  0  0  0
  4  7  1  0  0  0  0
  7  8  1  0  0  0  0
  7  9  1  0  0  0  0
  7 10  1  0  0  0  0
  1 11  1  0  0  0  0
 11 12  3  0  0  0  0
 12 13  1  0  0  0  0
M  END
> <ChemID>
101684

> <source_casrn>
627-19-0

> <CAS>
627-19-0

> <SMILES>
CCCC#C

> <NAME>
1-PENTYNE

> <preferred_name>
1-Pentyne

> <iupac>
pent-1-yne

> <MPID>
26276

> <dsstox_substance_id>
DTXSID7060835

> <Canonical_QSARr>
CCCC#C

> <InChI_Code_QSARr>
InChI=1S/C5H8/c1-3-5-4-2/h1H,4-5H2,2H3

> <InChI Key_QSARr>
IBXNCJKFFQIKKY-UHFFFAOYSA-N

> <Salt_Solvent>
?

> <LogVP>
2.6395

$$$$
101689
  -INDIGO-08031723152D

 41 40  0  0  0  0  0  0  0  0999 V2000
   -5.5426    0.0000    0.0000 C   0  0  0  0  0  0  0  0  0  0  0  0
   -4.9301   -1.4782    0.0000 H   0  0  0  0  0  0  0  0  0  0  0  0
   -6.1550   -1.4782    0.0000 H   0  0  0  0  0  0  0  0  0  0  0  0
   -4.1569    0.8000    0.0000 C   0  0  0  0  0  0  0  0  0  0  0  0
   -4.7693    2.2782    0.0000 H   0  0  0  0  0  0  0  0  0  0  0  0
   -3.5445    2.2782    0.0000 H   0  0  0  0  0  0  0  0  0  0  0  0
   -2.7713    0.0000    0.0000 C   0  0  0  0  0  0  0  0  0  0  0  0
   -2.1589   -1.4782    0.0000 H   0  0  0  0  0  0  0  0  0  0  0  0
   -3.3837   -1.4782    0.0000 H   0  0  0  0  0  0  0  0  0  0  0  0
   -1.3856    0.8000    0.0000 C   0  0  0  0  0  0  0  0  0  0  0  0
   -1.9981    2.2782    0.0000 H   0  0  0  0  0  0  0  0  0  0  0  0
   -0.7732    2.2782    0.0000 H   0  0  0  0  0  0  0  0  0  0  0  0
    0.0000    0.0000    0.0000 C   0  0  0  0  0  0  0  0  0  0  0  0
    0.6124   -1.4782    0.0000 H   0  0  0  0  0  0  0  0  0  0  0  0
   -0.6124   -1.4782    0.0000 H   0  0  0  0  0  0  0  0  0  0  0  0
    1.3856    0.8000    0.0000 C   0  0  0  0  0  0  0  0  0  0  0  0
    0.7732    2.2782    0.0000 H   0  0  0  0  0  0  0  0  0  0  0  0
    1.9981    2.2782    0.0000 H   0  0  0  0  0  0  0  0  0  0  0  0
    2.7713    0.0000    0.0000 C   0  0  0  0  0  0  0  0  0  0  0  0
    3.3837   -1.4782    0.0000 H   0  0  0  0  0  0  0  0  0  0  0  0
    2.1589   -1.4782    0.0000 H   0  0  0  0  0  0  0  0  0  0  0  0
    4.1569    0.8000    0.0000 C   0  0  0  0  0  0  0  0  0  0  0  0
    3.5445    2.2782    0.0000 H   0  0  0  0  0  0  0  0  0  0  0  0
    4.7693    2.2782    0.0000 H   0  0  0  0  0  0  0  0  0  0  0  0
    5.5426    0.0000    0.0000 C   0  0  0  0  0  0  0  0  0  0  0  0
    6.1550   -1.4782    0.0000 H   0  0  0  0  0  0  0  0  0  0  0  0
    4.9301   -1.4782    0.0000 H   0  0  0  0  0  0  0  0  0  0  0  0
    6.9282    0.8000    0.0000 C   0  0  0  0  0  0  0  0  0  0  0  0
    8.3138    1.6000    0.0000 H   0  0  0  0  0  0  0  0  0  0  0  0
    8.3138    0.0000    0.0000 H   0  0  0  0  0  0  0  0  0  0  0  0
    6.9282    2.4000    0.0000 H   0  0  0  0  0  0  0  0  0  0  0  0
   -6.9282    0.8000    0.0000 C   0  0  0  0  0  0  0  0  0  0  0  0
   -8.3138    0.0000    0.0000 O   0  0  0  0  0  0  0  0  0  0  0  0
   -9.6995    0.8000    0.0000 C   0  0  0  0  0  0  0  0  0  0  0  0
  -10.3119    2.2782    0.0000 H   0  0  0  0  0  0  0  0  0  0  0  0
   -9.0871    2.2782    0.0000 H   0  0  0  0  0  0  0  0  0  0  0  0
  -11.0851    0.0000    0.0000 C   0  0  0  0  0  0  0  0  0  0  0  0
  -12.4708   -0.8000    0.0000 H   0  0  0  0  0  0  0  0  0  0  0  0
  -12.4708    0.8000    0.0000 H   0  0  0  0  0  0  0  0  0  0  0  0
  -11.0851   -1.6000    0.0000 H   0  0  0  0  0  0  0  0  0  0  0  0
   -6.9282    2.4000    0.0000 O   0  0  0  0  0  0  0  0  0  0  0  0
  1  2  1  0  0  0  0
  1  3  1  0  0  0  0
  1  4  1  0  0  0  0
  4  5  1  0  0  0  0
  4  6  1  0  0  0  0
  4  7  1  0  0  0  0
  7  8  1  0  0  0  0
  7  9  1  0  0  0  0
  7 10  1  0  0  0  0
 10 11  1  0  0  0  0
 10 12  1  0  0  0  0
 10 13  1  0  0  0  0
 13 14  1  0  0  0  0
 13 15  1  0  0  0  0
 13 16  1  0  0  0  0
 16 17  1  0  0  0  0
 16 18  1  0  0  0  0
 16 19  1  0  0  0  0
 19 20  1  0  0  0  0
 19 21  1  0  0  0  0
 19 22  1  0  0  0  0
 22 23  1  0  0  0  0
 22 24  1  0  0  0  0
 22 25  1  0  0  0  0
 25 26  1  0  0  0  0
 25 27  1  0  0  0  0
 25 28  1  0  0  0  0
 28 29  1  0  0  0  0
 28 30  1  0  0  0  0
 28 31  1  0  0  0  0
  1 32  1  0  0  0  0
 32 33  1  0  0  0  0
 33 34  1  0  0  0  0
 34 35  1  0  0  0  0
 34 36  1  0  0  0  0
 34 37  1  0  0  0  0
 37 38  1  0  0  0  0
 37 39  1  0  0  0  0
 37 40  1  0  0  0  0
 32 41  2  0  0  0  0
M  END
> <ChemID>
101689

> <source_casrn>
627-90-7

> <CAS>
627-90-7

> <SMILES>
CCCCCCCCCCC(=O)OCC

> <NAME>
ETHYL UNDECANOATE

> <preferred_name>
Undecanoic acid, ethyl ester

> <iupac>
ETHYL UNDECANOATE

> <MPID>
26280

> <dsstox_substance_id>
DTXSID6060846

> <Canonical_QSARr>
CCCCCCCCCCC(=O)OCC

> <InChI_Code_QSARr>
InChI=1S/C13H26O2/c1-3-5-6-7-8-9-10-11-12-13(14)15-4-2/h3-12H2,1-2H3

> <InChI Key_QSARr>
IAFQYUQIAOWKSB-UHFFFAOYSA-N

> <Salt_Solvent>
?

> <LogVP>
-2.3665

$$$$
101693
  -INDIGO-08031723152D

 18 17  0  0  0  0  0  0  0  0999 V2000
    0.0001    0.0000    0.0000 C   0  0  0  0  0  0  0  0  0  0  0  0
    0.6124   -1.4782    0.0000 H   0  0  0  0  0  0  0  0  0  0  0  0
   -0.6122   -1.4782    0.0000 H   0  0  0  0  0  0  0  0  0  0  0  0
   -1.3857    0.8000    0.0000 C   0  0  0  0  0  0  0  0  0  0  0  0
   -1.9980    2.2782    0.0000 H   0  0  0  0  0  0  0  0  0  0  0  0
   -0.7734    2.2782    0.0000 H   0  0  0  0  0  0  0  0  0  0  0  0
   -2.7713    0.0000    0.0000 O   0  0  0  0  0  0  0  0  0  0  0  0
   -4.1569    0.8000    0.0000 C   0  0  0  0  0  0  0  0  0  0  0  0
   -5.5426    1.6000    0.0000 H   0  0  0  0  0  0  0  0  0  0  0  0
   -5.5426    0.0000    0.0000 H   0  0  0  0  0  0  0  0  0  0  0  0
   -4.1569    2.4000    0.0000 H   0  0  0  0  0  0  0  0  0  0  0  0
    1.3857    0.8000    0.0000 C   0  0  0  0  0  0  0  0  0  0  0  0
    0.7734    2.2782    0.0000 H   0  0  0  0  0  0  0  0  0  0  0  0
    1.9980    2.2782    0.0000 H   0  0  0  0  0  0  0  0  0  0  0  0
    2.7713    0.0000    0.0000 C   0  0  0  0  0  0  0  0  0  0  0  0
    4.1569   -0.8000    0.0000 H   0  0  0  0  0  0  0  0  0  0  0  0
    4.1569    0.8000    0.0000 H   0  0  0  0  0  0  0  0  0  0  0  0
    2.7713   -1.6000    0.0000 H   0  0  0  0  0  0  0  0  0  0  0  0
  1  2  1  0  0  0  0
  1  3  1  0  0  0  0
  1  4  1  0  0  0  0
  4  5  1  0  0  0  0
  4  6  1  0  0  0  0
  4  7  1  0  0  0  0
  7  8  1  0  0  0  0
  8  9  1  0  0  0  0
  8 10  1  0  0  0  0
  8 11  1  0  0  0  0
  1 12  1  0  0  0  0
 12 13  1  0  0  0  0
 12 14  1  0  0  0  0
 12 15  1  0  0  0  0
 15 16  1  0  0  0  0
 15 17  1  0  0  0  0
 15 18  1  0  0  0  0
M  END
> <ChemID>
101693

> <source_casrn>
628-28-4

> <CAS>
628-28-4

> <SMILES>
CCCCOC

> <NAME>
METHYL N-BUTYL ETHER

> <preferred_name>
Butane, 1-methoxy-

> <iupac>
1-Methoxybutane

> <MPID>
26284

> <dsstox_substance_id>
DTXSID5074559

> <Canonical_QSARr>
CCCCOC

> <InChI_Code_QSARr>
InChI=1S/C5H12O/c1-3-4-5-6-2/h3-5H2,1-2H3

> <InChI Key_QSARr>
CXBDYQVECUFKRK-UHFFFAOYSA-N

> <Salt_Solvent>
?

> <LogVP>
2.1424

$$$$
101697
  -INDIGO-08031723152D

 14 14  0  0  0  0  0  0  0  0999 V2000
   -0.0000    0.0000    0.0000 C   0  0  0  0  0  0  0  0  0  0  0  0
    1.0285    1.2257    0.0000 H   0  0  0  0  0  0  0  0  0  0  0  0
   -1.0285    1.2257    0.0000 H   0  0  0  0  0  0  0  0  0  0  0  0
    1.3856   -0.8000    0.0000 C   0  0  0  0  0  0  0  0  0  0  0  0
    2.7713    0.0000    0.0000 H   0  0  0  0  0  0  0  0  0  0  0  0
    1.3856   -2.4000    0.0000 C   0  0  0  0  0  0  0  0  0  0  0  0
    2.7713   -3.2000    0.0000 H   0  0  0  0  0  0  0  0  0  0  0  0
   -0.0000   -3.2000    0.0000 C   0  0  0  0  0  0  0  0  0  0  0  0
    1.0285   -4.4257    0.0000 H   0  0  0  0  0  0  0  0  0  0  0  0
   -1.0285   -4.4257    0.0000 H   0  0  0  0  0  0  0  0  0  0  0  0
   -1.3856   -2.4000    0.0000 C   0  0  0  0  0  0  0  0  0  0  0  0
   -2.7713   -3.2000    0.0000 H   0  0  0  0  0  0  0  0  0  0  0  0
   -1.3856   -0.8000    0.0000 C   0  0  0  0  0  0  0  0  0  0  0  0
   -2.7713    0.0000    0.0000 H   0  0  0  0  0  0  0  0  0  0  0  0
  1  2  1  0  0  0  0
  1  3  1  0  0  0  0
  1  4  1  0  0  0  0
  4  5  1  0  0  0  0
  4  6  2  0  0  0  0
  6  7  1  0  0  0  0
  6  8  1  0  0  0  0
  8  9  1  0  0  0  0
  8 10  1  0  0  0  0
  8 11  1  0  0  0  0
 11 12  1  0  0  0  0
 11 13  2  0  0  0  0
 13  1  1  0  0  0  0
 13 14  1  0  0  0  0
M  END
> <ChemID>
101697

> <source_casrn>
628-41-1

> <CAS>
628-41-1

> <SMILES>
C1C=CCC=C1

> <NAME>
1,4-CYCLOHEXADIENE

> <preferred_name>
1,4-Cyclohexadiene

> <iupac>
cyclohexa-1,4-diene

> <MPID>
26288

> <dsstox_substance_id>
DTXSID0060854

> <Canonical_QSARr>
C1C=CCC=C1

> <InChI_Code_QSARr>
InChI=1S/C6H8/c1-2-4-6-5-3-1/h1-2,5-6H,3-4H2

> <InChI Key_QSARr>
UVJHQYIOXKWHFD-UHFFFAOYSA-N

> <Salt_Solvent>
?

> <LogVP>
1.8236

$$$$
101701
  -INDIGO-08031723152D

 19 18  0  0  0  0  0  0  0  0999 V2000
   -1.3856    0.8000    0.0000 C   0  0  0  0  0  0  0  0  0  0  0  0
   -0.7734    2.2782    0.0000 H   0  0  0  0  0  0  0  0  0  0  0  0
   -1.9979    2.2782    0.0000 H   0  0  0  0  0  0  0  0  0  0  0  0
   -0.0001    0.0000    0.0000 C   0  0  0  0  0  0  0  0  0  0  0  0
   -0.6122   -1.4782    0.0000 H   0  0  0  0  0  0  0  0  0  0  0  0
    0.6123   -1.4782    0.0000 H   0  0  0  0  0  0  0  0  0  0  0  0
    1.3856    0.8000    0.0000 C   0  0  0  0  0  0  0  0  0  0  0  0
    1.9979    2.2782    0.0000 H   0  0  0  0  0  0  0  0  0  0  0  0
    0.7733    2.2782    0.0000 H   0  0  0  0  0  0  0  0  0  0  0  0
    2.7713    0.0000    0.0000 C   0  0  0  0  0  0  0  0  0  0  0  0
    4.1569   -0.8000    0.0000 H   0  0  0  0  0  0  0  0  0  0  0  0
    4.1569    0.8000    0.0000 H   0  0  0  0  0  0  0  0  0  0  0  0
    2.7713   -1.6000    0.0000 H   0  0  0  0  0  0  0  0  0  0  0  0
   -2.7712    0.0000    0.0000 C   0  0  0  0  0  0  0  0  0  0  0  0
   -3.3835   -1.4782    0.0000 H   0  0  0  0  0  0  0  0  0  0  0  0
   -2.1591   -1.4782    0.0000 H   0  0  0  0  0  0  0  0  0  0  0  0
   -4.1569    0.8000    0.0000 C   0  0  0  0  0  0  0  0  0  0  0  0
   -5.5425    1.6000    0.0000 C   0  0  0  0  0  0  0  0  0  0  0  0
   -6.9282    2.4000    0.0000 H   0  0  0  0  0  0  0  0  0  0  0  0
  1  2  1  0  0  0  0
  1  3  1  0  0  0  0
  1  4  1  0  0  0  0
  4  5  1  0  0  0  0
  4  6  1  0  0  0  0
  4  7  1  0  0  0  0
  7  8  1  0  0  0  0
  7  9  1  0  0  0  0
  7 10  1  0  0  0  0
 10 11  1  0  0  0  0
 10 12  1  0  0  0  0
 10 13  1  0  0  0  0
  1 14  1  0  0  0  0
 14 15  1  0  0  0  0
 14 16  1  0  0  0  0
 14 17  1  0  0  0  0
 17 18  3  0  0  0  0
 18 19  1  0  0  0  0
M  END
> <ChemID>
101701

> <source_casrn>
628-71-7

> <CAS>
628-71-7

> <SMILES>
CCCCCC#C

> <NAME>
1-HEPTYNE

> <preferred_name>
1-Heptyne

> <iupac>
hept-1-yne

> <MPID>
26292

> <dsstox_substance_id>
DTXSID5060857

> <Canonical_QSARr>
CCCCCC#C

> <InChI_Code_QSARr>
InChI=1S/C7H12/c1-3-5-7-6-4-2/h1H,4-7H2,2H3

> <InChI Key_QSARr>
YVXHZKKCZYLQOP-UHFFFAOYSA-N

> <Salt_Solvent>
?

> <LogVP>
1.7202

$$$$
101705
  -INDIGO-08031723152D

 12 11  0  0  0  0  0  0  0  0999 V2000
    2.7713   -0.0000    0.0000 C   0  0  0  0  0  0  0  0  0  0  0  0
    4.1569   -0.8000    0.0000 N   0  0  0  0  0  0  0  0  0  0  0  0
    1.3856    0.8000    0.0000 C   0  0  0  0  0  0  0  0  0  0  0  0
    0.7734    2.2782    0.0000 H   0  0  0  0  0  0  0  0  0  0  0  0
    1.9979    2.2782    0.0000 H   0  0  0  0  0  0  0  0  0  0  0  0
    0.0001   -0.0000    0.0000 N   0  0  0  0  0  0  0  0  0  0  0  0
    0.0001   -1.6000    0.0000 H   0  0  0  0  0  0  0  0  0  0  0  0
   -1.3856    0.8000    0.0000 C   0  0  0  0  0  0  0  0  0  0  0  0
   -1.9979    2.2782    0.0000 H   0  0  0  0  0  0  0  0  0  0  0  0
   -0.7734    2.2782    0.0000 H   0  0  0  0  0  0  0  0  0  0  0  0
   -2.7713   -0.0000    0.0000 C   0  0  0  0  0  0  0  0  0  0  0  0
   -4.1569   -0.8000    0.0000 N   0  0  0  0  0  0  0  0  0  0  0  0
  1  2  3  0  0  0  0
  1  3  1  0  0  0  0
  3  4  1  0  0  0  0
  3  5  1  0  0  0  0
  3  6  1  0  0  0  0
  6  7  1  0  0  0  0
  6  8  1  0  0  0  0
  8  9  1  0  0  0  0
  8 10  1  0  0  0  0
  8 11  1  0  0  0  0
 11 12  3  0  0  0  0
M  END
> <ChemID>
101705

> <source_casrn>
628-87-5

> <CAS>
628-87-5

> <SMILES>
N#CCNCC#N

> <NAME>
Acetonitrile, 2,2'-iminobis-

> <preferred_name>
Iminodiacetonitrile

> <iupac>
2,2'-iminodiacetonitrile

> <MPID>
26296

> <dsstox_substance_id>
DTXSID3041580

> <Canonical_QSARr>
N#CCNCC#N

> <InChI_Code_QSARr>
InChI=1S/C4H5N3/c5-1-3-7-4-2-6/h7H,3-4H2

> <InChI Key_QSARr>
BSRDNMMLQYNQQD-UHFFFAOYSA-N

> <Salt_Solvent>
?

> <LogVP>
-2.4672

$$$$
101709
  -INDIGO-08031723152D

 23 22  0  0  0  0  0  0  0  0999 V2000
    4.1569    2.4000    0.0000 Br  0  0  0  0  0  0  0  0  0  0  0  0
    4.1569    0.8000    0.0000 C   0  0  0  0  0  0  0  0  0  0  0  0
    5.5426    1.6000    0.0000 H   0  0  0  0  0  0  0  0  0  0  0  0
    5.5426    0.0000    0.0000 H   0  0  0  0  0  0  0  0  0  0  0  0
    2.7712    0.0000    0.0000 C   0  0  0  0  0  0  0  0  0  0  0  0
    3.3836   -1.4782    0.0000 H   0  0  0  0  0  0  0  0  0  0  0  0
    2.1589   -1.4782    0.0000 H   0  0  0  0  0  0  0  0  0  0  0  0
    1.3856    0.8000    0.0000 C   0  0  0  0  0  0  0  0  0  0  0  0
    0.7734    2.2782    0.0000 H   0  0  0  0  0  0  0  0  0  0  0  0
    1.9979    2.2782    0.0000 H   0  0  0  0  0  0  0  0  0  0  0  0
    0.0001    0.0000    0.0000 C   0  0  0  0  0  0  0  0  0  0  0  0
    0.6122   -1.4782    0.0000 H   0  0  0  0  0  0  0  0  0  0  0  0
   -0.6122   -1.4782    0.0000 H   0  0  0  0  0  0  0  0  0  0  0  0
   -1.3856    0.8000    0.0000 C   0  0  0  0  0  0  0  0  0  0  0  0
   -1.9979    2.2782    0.0000 H   0  0  0  0  0  0  0  0  0  0  0  0
   -0.7734    2.2782    0.0000 H   0  0  0  0  0  0  0  0  0  0  0  0
   -2.7712    0.0000    0.0000 C   0  0  0  0  0  0  0  0  0  0  0  0
   -2.1589   -1.4782    0.0000 H   0  0  0  0  0  0  0  0  0  0  0  0
   -3.3836   -1.4782    0.0000 H   0  0  0  0  0  0  0  0  0  0  0  0
   -4.1569    0.8000    0.0000 C   0  0  0  0  0  0  0  0  0  0  0  0
   -5.5426    1.6000    0.0000 H   0  0  0  0  0  0  0  0  0  0  0  0
   -5.5426    0.0000    0.0000 H   0  0  0  0  0  0  0  0  0  0  0  0
   -4.1569    2.4000    0.0000 H   0  0  0  0  0  0  0  0  0  0  0  0
  1  2  1  0  0  0  0
  2  3  1  0  0  0  0
  2  4  1  0  0  0  0
  2  5  1  0  0  0  0
  5  6  1  0  0  0  0
  5  7  1  0  0  0  0
  5  8  1  0  0  0  0
  8  9  1  0  0  0  0
  8 10  1  0  0  0  0
  8 11  1  0  0  0  0
 11 12  1  0  0  0  0
 11 13  1  0  0  0  0
 11 14  1  0  0  0  0
 14 15  1  0  0  0  0
 14 16  1  0  0  0  0
 14 17  1  0  0  0  0
 17 18  1  0  0  0  0
 17 19  1  0  0  0  0
 17 20  1  0  0  0  0
 20 21  1  0  0  0  0
 20 22  1  0  0  0  0
 20 23  1  0  0  0  0
M  END
> <ChemID>
101709

> <source_casrn>
629-04-9

> <CAS>
629-04-9

> <SMILES>
CCCCCCCBr

> <NAME>
1-BROMOHEPTANE

> <preferred_name>
1-Bromoheptane

> <iupac>
1-bromoheptane

> <MPID>
26300

> <dsstox_substance_id>
DTXSID7022095

> <Canonical_QSARr>
CCCCCCCBr

> <InChI_Code_QSARr>
InChI=1S/C7H15Br/c1-2-3-4-5-6-7-8/h2-7H2,1H3

> <InChI Key_QSARr>
LSXKDWGTSHCFPP-UHFFFAOYSA-N

> <Salt_Solvent>
?

> <LogVP>
0.1048

$$$$
101713
  -INDIGO-08031723152D

 22 21  0  0  0  0  0  0  0  0999 V2000
   -1.3856   -0.8000    0.0000 O   0  0  0  0  0  0  0  0  0  0  0  0
    0.0001    0.0000    0.0000 C   0  0  0  0  0  0  0  0  0  0  0  0
   -0.6123    1.4782    0.0000 H   0  0  0  0  0  0  0  0  0  0  0  0
    0.6122    1.4782    0.0000 H   0  0  0  0  0  0  0  0  0  0  0  0
    1.3856   -0.8000    0.0000 C   0  0  0  0  0  0  0  0  0  0  0  0
    1.9979   -2.2782    0.0000 H   0  0  0  0  0  0  0  0  0  0  0  0
    0.7734   -2.2782    0.0000 H   0  0  0  0  0  0  0  0  0  0  0  0
    2.7713    0.0000    0.0000 O   0  0  0  0  0  0  0  0  0  0  0  0
    4.1570   -0.8000    0.0000 C   0  0  0  0  0  0  0  0  0  0  0  0
    4.7692   -2.2782    0.0000 H   0  0  0  0  0  0  0  0  0  0  0  0
    3.5446   -2.2782    0.0000 H   0  0  0  0  0  0  0  0  0  0  0  0
    5.5425    0.0000    0.0000 C   0  0  0  0  0  0  0  0  0  0  0  0
    6.9282    0.8000    0.0000 H   0  0  0  0  0  0  0  0  0  0  0  0
    6.9282   -0.8000    0.0000 H   0  0  0  0  0  0  0  0  0  0  0  0
    5.5425    1.6000    0.0000 H   0  0  0  0  0  0  0  0  0  0  0  0
   -2.7713    0.0000    0.0000 C   0  0  0  0  0  0  0  0  0  0  0  0
   -3.3835    1.4782    0.0000 H   0  0  0  0  0  0  0  0  0  0  0  0
   -2.1590    1.4782    0.0000 H   0  0  0  0  0  0  0  0  0  0  0  0
   -4.1569   -0.8000    0.0000 C   0  0  0  0  0  0  0  0  0  0  0  0
   -5.5426   -1.6000    0.0000 H   0  0  0  0  0  0  0  0  0  0  0  0
   -5.5426    0.0000    0.0000 H   0  0  0  0  0  0  0  0  0  0  0  0
   -4.1569   -2.4000    0.0000 H   0  0  0  0  0  0  0  0  0  0  0  0
  1  2  1  0  0  0  0
  2  3  1  0  0  0  0
  2  4  1  0  0  0  0
  2  5  1  0  0  0  0
  5  6  1  0  0  0  0
  5  7  1  0  0  0  0
  5  8  1  0  0  0  0
  8  9  1  0  0  0  0
  9 10  1  0  0  0  0
  9 11  1  0  0  0  0
  9 12  1  0  0  0  0
 12 13  1  0  0  0  0
 12 14  1  0  0  0  0
 12 15  1  0  0  0  0
  1 16  1  0  0  0  0
 16 17  1  0  0  0  0
 16 18  1  0  0  0  0
 16 19  1  0  0  0  0
 19 20  1  0  0  0  0
 19 21  1  0  0  0  0
 19 22  1  0  0  0  0
M  END
> <ChemID>
101713

> <source_casrn>
629-14-1

> <CAS>
629-14-1

> <SMILES>
CCOCCOCC

> <NAME>
1,2-DIETHOXYETHANE

> <preferred_name>
Ethylene glycol diethyl ether

> <iupac>
1,2-diethoxyethane

> <MPID>
26304

> <dsstox_substance_id>
DTXSID5025285

> <Canonical_QSARr>
CCOCCOCC

> <InChI_Code_QSARr>
InChI=1S/C6H14O2/c1-3-7-5-6-8-4-2/h3-6H2,1-2H3

> <InChI Key_QSARr>
LZDKZFUFMNSQCJ-UHFFFAOYSA-N

> <Salt_Solvent>
?

> <LogVP>
1.528

$$$$
101717
  -INDIGO-08031723152D

 28 27  0  0  0  0  0  0  0  0999 V2000
    2.7714    0.0000    0.0000 S   0  0  0  0  0  0  0  0  0  0  0  0
    4.1568    0.8000    0.0000 S   0  0  0  0  0  0  0  0  0  0  0  0
    5.5425    0.0000    0.0000 C   0  0  0  0  0  0  0  0  0  0  0  0
    4.9302   -1.4782    0.0000 H   0  0  0  0  0  0  0  0  0  0  0  0
    6.1549   -1.4782    0.0000 H   0  0  0  0  0  0  0  0  0  0  0  0
    6.9282    0.8000    0.0000 C   0  0  0  0  0  0  0  0  0  0  0  0
    7.5404    2.2782    0.0000 H   0  0  0  0  0  0  0  0  0  0  0  0
    6.3159    2.2782    0.0000 H   0  0  0  0  0  0  0  0  0  0  0  0
    8.3139    0.0000    0.0000 C   0  0  0  0  0  0  0  0  0  0  0  0
    7.7016   -1.4782    0.0000 H   0  0  0  0  0  0  0  0  0  0  0  0
    8.9261   -1.4782    0.0000 H   0  0  0  0  0  0  0  0  0  0  0  0
    9.6994    0.8000    0.0000 C   0  0  0  0  0  0  0  0  0  0  0  0
   11.0851    1.6000    0.0000 H   0  0  0  0  0  0  0  0  0  0  0  0
   11.0851    0.0000    0.0000 H   0  0  0  0  0  0  0  0  0  0  0  0
    9.6994    2.4000    0.0000 H   0  0  0  0  0  0  0  0  0  0  0  0
    1.3857    0.8000    0.0000 C   0  0  0  0  0  0  0  0  0  0  0  0
    1.9980    2.2782    0.0000 H   0  0  0  0  0  0  0  0  0  0  0  0
    0.7733    2.2782    0.0000 H   0  0  0  0  0  0  0  0  0  0  0  0
   -0.0000    0.0000    0.0000 C   0  0  0  0  0  0  0  0  0  0  0  0
   -0.6122   -1.4782    0.0000 H   0  0  0  0  0  0  0  0  0  0  0  0
    0.6123   -1.4782    0.0000 H   0  0  0  0  0  0  0  0  0  0  0  0
   -1.3857    0.8000    0.0000 C   0  0  0  0  0  0  0  0  0  0  0  0
   -0.7734    2.2782    0.0000 H   0  0  0  0  0  0  0  0  0  0  0  0
   -1.9979    2.2782    0.0000 H   0  0  0  0  0  0  0  0  0  0  0  0
   -2.7712    0.0000    0.0000 C   0  0  0  0  0  0  0  0  0  0  0  0
   -4.1569   -0.8000    0.0000 H   0  0  0  0  0  0  0  0  0  0  0  0
   -4.1569    0.8000    0.0000 H   0  0  0  0  0  0  0  0  0  0  0  0
   -2.7712   -1.6000    0.0000 H   0  0  0  0  0  0  0  0  0  0  0  0
  1  2  1  0  0  0  0
  2  3  1  0  0  0  0
  3  4  1  0  0  0  0
  3  5  1  0  0  0  0
  3  6  1  0  0  0  0
  6  7  1  0  0  0  0
  6  8  1  0  0  0  0
  6  9  1  0  0  0  0
  9 10  1  0  0  0  0
  9 11  1  0  0  0  0
  9 12  1  0  0  0  0
 12 13  1  0  0  0  0
 12 14  1  0  0  0  0
 12 15  1  0  0  0  0
  1 16  1  0  0  0  0
 16 17  1  0  0  0  0
 16 18  1  0  0  0  0
 16 19  1  0  0  0  0
 19 20  1  0  0  0  0
 19 21  1  0  0  0  0
 19 22  1  0  0  0  0
 22 23  1  0  0  0  0
 22 24  1  0  0  0  0
 22 25  1  0  0  0  0
 25 26  1  0  0  0  0
 25 27  1  0  0  0  0
 25 28  1  0  0  0  0
M  END
> <ChemID>
101717

> <source_casrn>
629-45-8

> <CAS>
629-45-8

> <SMILES>
CCCCSSCCCC

> <NAME>
DIBUTYL DISULFIDE

> <preferred_name>
Disulfide, dibutyl

> <iupac>
1-butyldisulfanylbutane

> <MPID>
26308

> <dsstox_substance_id>
DTXSID8060874

> <Canonical_QSARr>
CCCCSSCCCC

> <InChI_Code_QSARr>
InChI=1S/C8H18S2/c1-3-5-7-9-10-8-6-4-2/h3-8H2,1-2H3

> <InChI Key_QSARr>
CUDSBWGCGSUXDB-UHFFFAOYSA-N

> <Salt_Solvent>
?

> <LogVP>
-1.1993

$$$$
101721
  -INDIGO-08031723152D

 47 46  0  0  0  0  0  0  0  0999 V2000
    9.6995    0.8000    0.0000 C   0  0  0  0  0  0  0  0  0  0  0  0
   11.0851    1.6000    0.0000 H   0  0  0  0  0  0  0  0  0  0  0  0
   11.0851    0.0000    0.0000 H   0  0  0  0  0  0  0  0  0  0  0  0
    9.6995    2.4000    0.0000 H   0  0  0  0  0  0  0  0  0  0  0  0
    8.3138    0.0000    0.0000 C   0  0  0  0  0  0  0  0  0  0  0  0
    8.9261   -1.4782    0.0000 H   0  0  0  0  0  0  0  0  0  0  0  0
    7.7015   -1.4782    0.0000 H   0  0  0  0  0  0  0  0  0  0  0  0
    6.9281    0.8000    0.0000 C   0  0  0  0  0  0  0  0  0  0  0  0
    6.3158    2.2782    0.0000 H   0  0  0  0  0  0  0  0  0  0  0  0
    7.5405    2.2782    0.0000 H   0  0  0  0  0  0  0  0  0  0  0  0
    5.5425    0.0000    0.0000 C   0  0  0  0  0  0  0  0  0  0  0  0
    6.1548   -1.4782    0.0000 H   0  0  0  0  0  0  0  0  0  0  0  0
    4.9302   -1.4782    0.0000 H   0  0  0  0  0  0  0  0  0  0  0  0
    4.1568    0.8000    0.0000 C   0  0  0  0  0  0  0  0  0  0  0  0
    3.5445    2.2782    0.0000 H   0  0  0  0  0  0  0  0  0  0  0  0
    4.7691    2.2782    0.0000 H   0  0  0  0  0  0  0  0  0  0  0  0
    2.7712    0.0000    0.0000 C   0  0  0  0  0  0  0  0  0  0  0  0
    3.3835   -1.4782    0.0000 H   0  0  0  0  0  0  0  0  0  0  0  0
    2.1588   -1.4782    0.0000 H   0  0  0  0  0  0  0  0  0  0  0  0
    1.3855    0.8000    0.0000 C   0  0  0  0  0  0  0  0  0  0  0  0
    0.7735    2.2782    0.0000 H   0  0  0  0  0  0  0  0  0  0  0  0
    1.9978    2.2782    0.0000 H   0  0  0  0  0  0  0  0  0  0  0  0
   -0.0002    0.0000    0.0000 C   0  0  0  0  0  0  0  0  0  0  0  0
    0.6121   -1.4782    0.0000 H   0  0  0  0  0  0  0  0  0  0  0  0
   -0.6121   -1.4782    0.0000 H   0  0  0  0  0  0  0  0  0  0  0  0
   -1.3855    0.8000    0.0000 C   0  0  0  0  0  0  0  0  0  0  0  0
   -1.9978    2.2782    0.0000 H   0  0  0  0  0  0  0  0  0  0  0  0
   -0.7735    2.2782    0.0000 H   0  0  0  0  0  0  0  0  0  0  0  0
   -2.7712    0.0000    0.0000 C   0  0  0  0  0  0  0  0  0  0  0  0
   -2.1588   -1.4782    0.0000 H   0  0  0  0  0  0  0  0  0  0  0  0
   -3.3835   -1.4782    0.0000 H   0  0  0  0  0  0  0  0  0  0  0  0
   -4.1568    0.8000    0.0000 C   0  0  0  0  0  0  0  0  0  0  0  0
   -4.7691    2.2782    0.0000 H   0  0  0  0  0  0  0  0  0  0  0  0
   -3.5445    2.2782    0.0000 H   0  0  0  0  0  0  0  0  0  0  0  0
   -5.5425    0.0000    0.0000 C   0  0  0  0  0  0  0  0  0  0  0  0
   -4.9302   -1.4782    0.0000 H   0  0  0  0  0  0  0  0  0  0  0  0
   -6.1548   -1.4782    0.0000 H   0  0  0  0  0  0  0  0  0  0  0  0
   -6.9281    0.8000    0.0000 C   0  0  0  0  0  0  0  0  0  0  0  0
   -7.5405    2.2782    0.0000 H   0  0  0  0  0  0  0  0  0  0  0  0
   -6.3158    2.2782    0.0000 H   0  0  0  0  0  0  0  0  0  0  0  0
   -8.3138    0.0000    0.0000 C   0  0  0  0  0  0  0  0  0  0  0  0
   -7.7015   -1.4782    0.0000 H   0  0  0  0  0  0  0  0  0  0  0  0
   -8.9261   -1.4782    0.0000 H   0  0  0  0  0  0  0  0  0  0  0  0
   -9.6995    0.8000    0.0000 C   0  0  0  0  0  0  0  0  0  0  0  0
  -11.0851    1.6000    0.0000 H   0  0  0  0  0  0  0  0  0  0  0  0
  -11.0851    0.0000    0.0000 H   0  0  0  0  0  0  0  0  0  0  0  0
   -9.6995    2.4000    0.0000 Br  0  0  0  0  0  0  0  0  0  0  0  0
  1  2  1  0  0  0  0
  1  3  1  0  0  0  0
  1  4  1  0  0  0  0
  1  5  1  0  0  0  0
  5  6  1  0  0  0  0
  5  7  1  0  0  0  0
  5  8  1  0  0  0  0
  8  9  1  0  0  0  0
  8 10  1  0  0  0  0
  8 11  1  0  0  0  0
 11 12  1  0  0  0  0
 11 13  1  0  0  0  0
 11 14  1  0  0  0  0
 14 15  1  0  0  0  0
 14 16  1  0  0  0  0
 14 17  1  0  0  0  0
 17 18  1  0  0  0  0
 17 19  1  0  0  0  0
 17 20  1  0  0  0  0
 20 21  1  0  0  0  0
 20 22  1  0  0  0  0
 20 23  1  0  0  0  0
 23 24  1  0  0  0  0
 23 25  1  0  0  0  0
 23 26  1  0  0  0  0
 26 27  1  0  0  0  0
 26 28  1  0  0  0  0
 26 29  1  0  0  0  0
 29 30  1  0  0  0  0
 29 31  1  0  0  0  0
 29 32  1  0  0  0  0
 32 33  1  0  0  0  0
 32 34  1  0  0  0  0
 32 35  1  0  0  0  0
 35 36  1  0  0  0  0
 35 37  1  0  0  0  0
 35 38  1  0  0  0  0
 38 39  1  0  0  0  0
 38 40  1  0  0  0  0
 38 41  1  0  0  0  0
 41 42  1  0  0  0  0
 41 43  1  0  0  0  0
 41 44  1  0  0  0  0
 44 45  1  0  0  0  0
 44 46  1  0  0  0  0
 44 47  1  0  0  0  0
M  END
> <ChemID>
101721

> <source_casrn>
629-72-1

> <CAS>
629-72-1

> <SMILES>
CCCCCCCCCCCCCCCBr

> <NAME>
1-BROMOPENTADECANE

> <preferred_name>
Pentadecane,1-bromo-

> <iupac>
1-bromopentadecane

> <MPID>
26312

> <dsstox_substance_id>
DTXSID8049339

> <Canonical_QSARr>
CCCCCCCCCCCCCCCBr

> <InChI_Code_QSARr>
InChI=1S/C15H31Br/c1-2-3-4-5-6-7-8-9-10-11-12-13-14-15-16/h2-15H2,1H3

> <InChI Key_QSARr>
JKOTZBXSNOGCIF-UHFFFAOYSA-N

> <Salt_Solvent>
?

> <LogVP>
-3.8294

$$$$
101725
  -INDIGO-08031723152D

 59 58  0  0  0  0  0  0  0  0999 V2000
    9.6994   -0.8000    0.0000 C   0  0  0  0  0  0  0  0  0  0  0  0
   11.0851   -1.6000    0.0000 H   0  0  0  0  0  0  0  0  0  0  0  0
   11.0851    0.0000    0.0000 H   0  0  0  0  0  0  0  0  0  0  0  0
    9.6994   -2.4000    0.0000 H   0  0  0  0  0  0  0  0  0  0  0  0
    8.3141    0.0000    0.0000 C   0  0  0  0  0  0  0  0  0  0  0  0
    8.9259    1.4782    0.0000 H   0  0  0  0  0  0  0  0  0  0  0  0
    7.7017    1.4782    0.0000 H   0  0  0  0  0  0  0  0  0  0  0  0
    6.9283   -0.8000    0.0000 C   0  0  0  0  0  0  0  0  0  0  0  0
    6.3160   -2.2782    0.0000 H   0  0  0  0  0  0  0  0  0  0  0  0
    7.5406   -2.2782    0.0000 H   0  0  0  0  0  0  0  0  0  0  0  0
    5.5426    0.0000    0.0000 C   0  0  0  0  0  0  0  0  0  0  0  0
    6.1549    1.4782    0.0000 H   0  0  0  0  0  0  0  0  0  0  0  0
    4.9302    1.4782    0.0000 H   0  0  0  0  0  0  0  0  0  0  0  0
    4.1568   -0.8000    0.0000 C   0  0  0  0  0  0  0  0  0  0  0  0
    3.5445   -2.2782    0.0000 H   0  0  0  0  0  0  0  0  0  0  0  0
    4.7691   -2.2782    0.0000 H   0  0  0  0  0  0  0  0  0  0  0  0
    2.7715    0.0000    0.0000 C   0  0  0  0  0  0  0  0  0  0  0  0
    3.3834    1.4782    0.0000 H   0  0  0  0  0  0  0  0  0  0  0  0
    2.1592    1.4782    0.0000 H   0  0  0  0  0  0  0  0  0  0  0  0
    1.3857   -0.8000    0.0000 C   0  0  0  0  0  0  0  0  0  0  0  0
    0.7734   -2.2782    0.0000 H   0  0  0  0  0  0  0  0  0  0  0  0
    1.9981   -2.2782    0.0000 H   0  0  0  0  0  0  0  0  0  0  0  0
    0.0000    0.0000    0.0000 C   0  0  0  0  0  0  0  0  0  0  0  0
    0.6123    1.4782    0.0000 H   0  0  0  0  0  0  0  0  0  0  0  0
   -0.6123    1.4782    0.0000 H   0  0  0  0  0  0  0  0  0  0  0  0
   -1.3857   -0.8000    0.0000 C   0  0  0  0  0  0  0  0  0  0  0  0
   -1.9981   -2.2782    0.0000 H   0  0  0  0  0  0  0  0  0  0  0  0
   -0.7734   -2.2782    0.0000 H   0  0  0  0  0  0  0  0  0  0  0  0
   -2.7711    0.0000    0.0000 C   0  0  0  0  0  0  0  0  0  0  0  0
   -2.1592    1.4782    0.0000 H   0  0  0  0  0  0  0  0  0  0  0  0
   -3.3834    1.4782    0.0000 H   0  0  0  0  0  0  0  0  0  0  0  0
   -4.1568   -0.8000    0.0000 C   0  0  0  0  0  0  0  0  0  0  0  0
   -4.7691   -2.2782    0.0000 H   0  0  0  0  0  0  0  0  0  0  0  0
   -3.5445   -2.2782    0.0000 H   0  0  0  0  0  0  0  0  0  0  0  0
   -5.5426    0.0000    0.0000 C   0  0  0  0  0  0  0  0  0  0  0  0
   -4.9302    1.4782    0.0000 H   0  0  0  0  0  0  0  0  0  0  0  0
   -6.1549    1.4782    0.0000 H   0  0  0  0  0  0  0  0  0  0  0  0
   -6.9283   -0.8000    0.0000 C   0  0  0  0  0  0  0  0  0  0  0  0
   -7.5406   -2.2782    0.0000 H   0  0  0  0  0  0  0  0  0  0  0  0
   -6.3160   -2.2782    0.0000 H   0  0  0  0  0  0  0  0  0  0  0  0
   -8.3136    0.0000    0.0000 C   0  0  0  0  0  0  0  0  0  0  0  0
   -7.7017    1.4782    0.0000 H   0  0  0  0  0  0  0  0  0  0  0  0
   -8.9260    1.4782    0.0000 H   0  0  0  0  0  0  0  0  0  0  0  0
   -9.6994   -0.8000    0.0000 C   0  0  0  0  0  0  0  0  0  0  0  0
  -10.3117   -2.2782    0.0000 H   0  0  0  0  0  0  0  0  0  0  0  0
   -9.0871   -2.2782    0.0000 H   0  0  0  0  0  0  0  0  0  0  0  0
  -11.0851    0.0000    0.0000 C   0  0  0  0  0  0  0  0  0  0  0  0
  -10.4728    1.4782    0.0000 H   0  0  0  0  0  0  0  0  0  0  0  0
  -11.6974    1.4782    0.0000 H   0  0  0  0  0  0  0  0  0  0  0  0
  -12.4709   -0.8000    0.0000 C   0  0  0  0  0  0  0  0  0  0  0  0
  -13.0832   -2.2782    0.0000 H   0  0  0  0  0  0  0  0  0  0  0  0
  -11.8586   -2.2782    0.0000 H   0  0  0  0  0  0  0  0  0  0  0  0
  -13.8562    0.0000    0.0000 C   0  0  0  0  0  0  0  0  0  0  0  0
  -13.2443    1.4782    0.0000 H   0  0  0  0  0  0  0  0  0  0  0  0
  -14.4685    1.4782    0.0000 H   0  0  0  0  0  0  0  0  0  0  0  0
  -15.2419   -0.8000    0.0000 C   0  0  0  0  0  0  0  0  0  0  0  0
  -16.6277   -1.6000    0.0000 H   0  0  0  0  0  0  0  0  0  0  0  0
  -16.6277    0.0000    0.0000 H   0  0  0  0  0  0  0  0  0  0  0  0
  -15.2419   -2.4000    0.0000 H   0  0  0  0  0  0  0  0  0  0  0  0
  1  2  1  0  0  0  0
  1  3  1  0  0  0  0
  1  4  1  0  0  0  0
  1  5  1  0  0  0  0
  5  6  1  0  0  0  0
  5  7  1  0  0  0  0
  5  8  1  0  0  0  0
  8  9  1  0  0  0  0
  8 10  1  0  0  0  0
  8 11  1  0  0  0  0
 11 12  1  0  0  0  0
 11 13  1  0  0  0  0
 11 14  1  0  0  0  0
 14 15  1  0  0  0  0
 14 16  1  0  0  0  0
 14 17  1  0  0  0  0
 17 18  1  0  0  0  0
 17 19  1  0  0  0  0
 17 20  1  0  0  0  0
 20 21  1  0  0  0  0
 20 22  1  0  0  0  0
 20 23  1  0  0  0  0
 23 24  1  0  0  0  0
 23 25  1  0  0  0  0
 23 26  1  0  0  0  0
 26 27  1  0  0  0  0
 26 28  1  0  0  0  0
 26 29  1  0  0  0  0
 29 30  1  0  0  0  0
 29 31  1  0  0  0  0
 29 32  1  0  0  0  0
 32 33  1  0  0  0  0
 32 34  1  0  0  0  0
 32 35  1  0  0  0  0
 35 36  1  0  0  0  0
 35 37  1  0  0  0  0
 35 38  1  0  0  0  0
 38 39  1  0  0  0  0
 38 40  1  0  0  0  0
 38 41  1  0  0  0  0
 41 42  1  0  0  0  0
 41 43  1  0  0  0  0
 41 44  1  0  0  0  0
 44 45  1  0  0  0  0
 44 46  1  0  0  0  0
 44 47  1  0  0  0  0
 47 48  1  0  0  0  0
 47 49  1  0  0  0  0
 47 50  1  0  0  0  0
 50 51  1  0  0  0  0
 50 52  1  0  0  0  0
 50 53  1  0  0  0  0
 53 54  1  0  0  0  0
 53 55  1  0  0  0  0
 53 56  1  0  0  0  0
 56 57  1  0  0  0  0
 56 58  1  0  0  0  0
 56 59  1  0  0  0  0
M  END
> <ChemID>
101725

> <source_casrn>
629-92-5

> <CAS>
629-92-5

> <SMILES>
CCCCCCCCCCCCCCCCCCC

> <NAME>
NONADECANE

> <preferred_name>
Nonadecane

> <iupac>
nonadecane

> <MPID>
26316

> <dsstox_substance_id>
DTXSID9047170

> <Canonical_QSARr>
CCCCCCCCCCCCCCCCCCC

> <InChI_Code_QSARr>
InChI=1S/C19H40/c1-3-5-7-9-11-13-15-17-19-18-16-14-12-10-8-6-4-2/h3-19H2,1-2H3

> <InChI Key_QSARr>
LQERIDTXQFOHKA-UHFFFAOYSA-N

> <Salt_Solvent>
?

> <LogVP>
-4.3095

$$$$
101729
  -INDIGO-08031723152D

 68 67  0  0  0  0  0  0  0  0999 V2000
    9.6997   -0.8000    0.0000 C   0  0  0  0  0  0  0  0  0  0  0  0
   11.0851   -1.6000    0.0000 H   0  0  0  0  0  0  0  0  0  0  0  0
   11.0851    0.0000    0.0000 H   0  0  0  0  0  0  0  0  0  0  0  0
    9.6997   -2.4000    0.0000 H   0  0  0  0  0  0  0  0  0  0  0  0
    8.3137    0.0000    0.0000 C   0  0  0  0  0  0  0  0  0  0  0  0
    8.9259    1.4782    0.0000 H   0  0  0  0  0  0  0  0  0  0  0  0
    7.7014    1.4782    0.0000 H   0  0  0  0  0  0  0  0  0  0  0  0
    6.9282   -0.8000    0.0000 C   0  0  0  0  0  0  0  0  0  0  0  0
    6.3160   -2.2782    0.0000 H   0  0  0  0  0  0  0  0  0  0  0  0
    7.5405   -2.2782    0.0000 H   0  0  0  0  0  0  0  0  0  0  0  0
    5.5428    0.0000    0.0000 C   0  0  0  0  0  0  0  0  0  0  0  0
    6.1550    1.4782    0.0000 H   0  0  0  0  0  0  0  0  0  0  0  0
    4.9305    1.4782    0.0000 H   0  0  0  0  0  0  0  0  0  0  0  0
    4.1568   -0.8000    0.0000 C   0  0  0  0  0  0  0  0  0  0  0  0
    3.5445   -2.2782    0.0000 H   0  0  0  0  0  0  0  0  0  0  0  0
    4.7690   -2.2782    0.0000 H   0  0  0  0  0  0  0  0  0  0  0  0
    2.7713    0.0000    0.0000 C   0  0  0  0  0  0  0  0  0  0  0  0
    3.3836    1.4782    0.0000 H   0  0  0  0  0  0  0  0  0  0  0  0
    2.1591    1.4782    0.0000 H   0  0  0  0  0  0  0  0  0  0  0  0
    1.3859   -0.8000    0.0000 C   0  0  0  0  0  0  0  0  0  0  0  0
    0.7731   -2.2782    0.0000 H   0  0  0  0  0  0  0  0  0  0  0  0
    1.9981   -2.2782    0.0000 H   0  0  0  0  0  0  0  0  0  0  0  0
   -0.0001    0.0000    0.0000 C   0  0  0  0  0  0  0  0  0  0  0  0
    0.6121    1.4782    0.0000 H   0  0  0  0  0  0  0  0  0  0  0  0
   -0.6124    1.4782    0.0000 H   0  0  0  0  0  0  0  0  0  0  0  0
   -1.3856   -0.8000    0.0000 C   0  0  0  0  0  0  0  0  0  0  0  0
   -1.9978   -2.2782    0.0000 H   0  0  0  0  0  0  0  0  0  0  0  0
   -0.7733   -2.2782    0.0000 H   0  0  0  0  0  0  0  0  0  0  0  0
   -2.7710    0.0000    0.0000 C   0  0  0  0  0  0  0  0  0  0  0  0
   -2.1588    1.4782    0.0000 H   0  0  0  0  0  0  0  0  0  0  0  0
   -3.3838    1.4782    0.0000 H   0  0  0  0  0  0  0  0  0  0  0  0
   -4.1570   -0.8000    0.0000 C   0  0  0  0  0  0  0  0  0  0  0  0
   -4.7693   -2.2782    0.0000 H   0  0  0  0  0  0  0  0  0  0  0  0
   -3.5448   -2.2782    0.0000 H   0  0  0  0  0  0  0  0  0  0  0  0
   -5.5425    0.0000    0.0000 C   0  0  0  0  0  0  0  0  0  0  0  0
   -4.9302    1.4782    0.0000 H   0  0  0  0  0  0  0  0  0  0  0  0
   -6.1547    1.4782    0.0000 H   0  0  0  0  0  0  0  0  0  0  0  0
   -6.9284   -0.8000    0.0000 C   0  0  0  0  0  0  0  0  0  0  0  0
   -7.5407   -2.2782    0.0000 H   0  0  0  0  0  0  0  0  0  0  0  0
   -6.3157   -2.2782    0.0000 H   0  0  0  0  0  0  0  0  0  0  0  0
   -8.3139    0.0000    0.0000 C   0  0  0  0  0  0  0  0  0  0  0  0
   -7.7017    1.4782    0.0000 H   0  0  0  0  0  0  0  0  0  0  0  0
   -8.9262    1.4782    0.0000 H   0  0  0  0  0  0  0  0  0  0  0  0
   -9.6994   -0.8000    0.0000 C   0  0  0  0  0  0  0  0  0  0  0  0
  -10.3116   -2.2782    0.0000 H   0  0  0  0  0  0  0  0  0  0  0  0
   -9.0871   -2.2782    0.0000 H   0  0  0  0  0  0  0  0  0  0  0  0
  -11.0853    0.0000    0.0000 C   0  0  0  0  0  0  0  0  0  0  0  0
  -10.4726    1.4782    0.0000 H   0  0  0  0  0  0  0  0  0  0  0  0
  -11.6976    1.4782    0.0000 H   0  0  0  0  0  0  0  0  0  0  0  0
  -12.4708   -0.8000    0.0000 C   0  0  0  0  0  0  0  0  0  0  0  0
  -13.0831   -2.2782    0.0000 H   0  0  0  0  0  0  0  0  0  0  0  0
  -11.8586   -2.2782    0.0000 H   0  0  0  0  0  0  0  0  0  0  0  0
  -13.8563    0.0000    0.0000 C   0  0  0  0  0  0  0  0  0  0  0  0
  -13.2440    1.4782    0.0000 H   0  0  0  0  0  0  0  0  0  0  0  0
  -14.4685    1.4782    0.0000 H   0  0  0  0  0  0  0  0  0  0  0  0
  -15.2422   -0.8000    0.0000 C   0  0  0  0  0  0  0  0  0  0  0  0
  -15.8545   -2.2782    0.0000 H   0  0  0  0  0  0  0  0  0  0  0  0
  -14.6300   -2.2782    0.0000 H   0  0  0  0  0  0  0  0  0  0  0  0
  -16.6277    0.0000    0.0000 C   0  0  0  0  0  0  0  0  0  0  0  0
  -16.0155    1.4782    0.0000 H   0  0  0  0  0  0  0  0  0  0  0  0
  -17.2400    1.4782    0.0000 H   0  0  0  0  0  0  0  0  0  0  0  0
  -18.0132   -0.8000    0.0000 C   0  0  0  0  0  0  0  0  0  0  0  0
  -18.6254   -2.2782    0.0000 H   0  0  0  0  0  0  0  0  0  0  0  0
  -17.4009   -2.2782    0.0000 H   0  0  0  0  0  0  0  0  0  0  0  0
  -19.3991    0.0000    0.0000 C   0  0  0  0  0  0  0  0  0  0  0  0
  -20.7846    0.8000    0.0000 H   0  0  0  0  0  0  0  0  0  0  0  0
  -20.7846   -0.8000    0.0000 H   0  0  0  0  0  0  0  0  0  0  0  0
  -19.3991    1.6000    0.0000 H   0  0  0  0  0  0  0  0  0  0  0  0
  1  2  1  0  0  0  0
  1  3  1  0  0  0  0
  1  4  1  0  0  0  0
  1  5  1  0  0  0  0
  5  6  1  0  0  0  0
  5  7  1  0  0  0  0
  5  8  1  0  0  0  0
  8  9  1  0  0  0  0
  8 10  1  0  0  0  0
  8 11  1  0  0  0  0
 11 12  1  0  0  0  0
 11 13  1  0  0  0  0
 11 14  1  0  0  0  0
 14 15  1  0  0  0  0
 14 16  1  0  0  0  0
 14 17  1  0  0  0  0
 17 18  1  0  0  0  0
 17 19  1  0  0  0  0
 17 20  1  0  0  0  0
 20 21  1  0  0  0  0
 20 22  1  0  0  0  0
 20 23  1  0  0  0  0
 23 24  1  0  0  0  0
 23 25  1  0  0  0  0
 23 26  1  0  0  0  0
 26 27  1  0  0  0  0
 26 28  1  0  0  0  0
 26 29  1  0  0  0  0
 29 30  1  0  0  0  0
 29 31  1  0  0  0  0
 29 32  1  0  0  0  0
 32 33  1  0  0  0  0
 32 34  1  0  0  0  0
 32 35  1  0  0  0  0
 35 36  1  0  0  0  0
 35 37  1  0  0  0  0
 35 38  1  0  0  0  0
 38 39  1  0  0  0  0
 38 40  1  0  0  0  0
 38 41  1  0  0  0  0
 41 42  1  0  0  0  0
 41 43  1  0  0  0  0
 41 44  1  0  0  0  0
 44 45  1  0  0  0  0
 44 46  1  0  0  0  0
 44 47  1  0  0  0  0
 47 48  1  0  0  0  0
 47 49  1  0  0  0  0
 47 50  1  0  0  0  0
 50 51  1  0  0  0  0
 50 52  1  0  0  0  0
 50 53  1  0  0  0  0
 53 54  1  0  0  0  0
 53 55  1  0  0  0  0
 53 56  1  0  0  0  0
 56 57  1  0  0  0  0
 56 58  1  0  0  0  0
 56 59  1  0  0  0  0
 59 60  1  0  0  0  0
 59 61  1  0  0  0  0
 59 62  1  0  0  0  0
 62 63  1  0  0  0  0
 62 64  1  0  0  0  0
 62 65  1  0  0  0  0
 65 66  1  0  0  0  0
 65 67  1  0  0  0  0
 65 68  1  0  0  0  0
M  END
> <ChemID>
101729

> <source_casrn>
629-97-0

> <CAS>
629-97-0

> <SMILES>
CCCCCCCCCCCCCCCCCCCCCC

> <NAME>
DOCOSANE

> <preferred_name>
Docosane

> <iupac>
docosane

> <MPID>
26320

> <dsstox_substance_id>
DTXSID7047063

> <Canonical_QSARr>
CCCCCCCCCCCCCCCCCCCCCC

> <InChI_Code_QSARr>
InChI=1S/C22H46/c1-3-5-7-9-11-13-15-17-19-21-22-20-18-16-14-12-10-8-6-4-2/h3-22H2,1-2H3

> <InChI Key_QSARr>
HOWGUJZVBDQJKV-UHFFFAOYSA-N

> <Salt_Solvent>
?

> <LogVP>
-5.8928

$$$$
101733
  -INDIGO-08031723152D

 89 88  0  0  0  0  0  0  0  0999 V2000
    0.0003    0.0000    0.0000 C   0  0  0  0  0  0  0  0  0  0  0  0
    0.6124    1.4782    0.0000 H   0  0  0  0  0  0  0  0  0  0  0  0
   -0.6124    1.4782    0.0000 H   0  0  0  0  0  0  0  0  0  0  0  0
    1.3856   -0.8000    0.0000 C   0  0  0  0  0  0  0  0  0  0  0  0
    0.7735   -2.2782    0.0000 H   0  0  0  0  0  0  0  0  0  0  0  0
    1.9977   -2.2782    0.0000 H   0  0  0  0  0  0  0  0  0  0  0  0
    2.7716    0.0000    0.0000 C   0  0  0  0  0  0  0  0  0  0  0  0
    3.3837    1.4782    0.0000 H   0  0  0  0  0  0  0  0  0  0  0  0
    2.1589    1.4782    0.0000 H   0  0  0  0  0  0  0  0  0  0  0  0
    4.1569   -0.8000    0.0000 C   0  0  0  0  0  0  0  0  0  0  0  0
    3.5448   -2.2782    0.0000 H   0  0  0  0  0  0  0  0  0  0  0  0
    4.7690   -2.2782    0.0000 H   0  0  0  0  0  0  0  0  0  0  0  0
    5.5429    0.0000    0.0000 C   0  0  0  0  0  0  0  0  0  0  0  0
    6.1550    1.4782    0.0000 H   0  0  0  0  0  0  0  0  0  0  0  0
    4.9301    1.4782    0.0000 H   0  0  0  0  0  0  0  0  0  0  0  0
    6.9282   -0.8000    0.0000 C   0  0  0  0  0  0  0  0  0  0  0  0
    6.3161   -2.2782    0.0000 H   0  0  0  0  0  0  0  0  0  0  0  0
    7.5403   -2.2782    0.0000 H   0  0  0  0  0  0  0  0  0  0  0  0
    8.3142    0.0000    0.0000 C   0  0  0  0  0  0  0  0  0  0  0  0
    8.9263    1.4782    0.0000 H   0  0  0  0  0  0  0  0  0  0  0  0
    7.7014    1.4782    0.0000 H   0  0  0  0  0  0  0  0  0  0  0  0
    9.6995   -0.8000    0.0000 C   0  0  0  0  0  0  0  0  0  0  0  0
    9.0874   -2.2782    0.0000 H   0  0  0  0  0  0  0  0  0  0  0  0
   10.3116   -2.2782    0.0000 H   0  0  0  0  0  0  0  0  0  0  0  0
   11.0854    0.0000    0.0000 C   0  0  0  0  0  0  0  0  0  0  0  0
   11.6975    1.4782    0.0000 H   0  0  0  0  0  0  0  0  0  0  0  0
   10.4727    1.4782    0.0000 H   0  0  0  0  0  0  0  0  0  0  0  0
   12.4708   -0.8000    0.0000 C   0  0  0  0  0  0  0  0  0  0  0  0
   11.8587   -2.2782    0.0000 H   0  0  0  0  0  0  0  0  0  0  0  0
   13.0829   -2.2782    0.0000 H   0  0  0  0  0  0  0  0  0  0  0  0
   13.8567    0.0000    0.0000 C   0  0  0  0  0  0  0  0  0  0  0  0
   14.4688    1.4782    0.0000 H   0  0  0  0  0  0  0  0  0  0  0  0
   13.2440    1.4782    0.0000 H   0  0  0  0  0  0  0  0  0  0  0  0
   15.2420   -0.8000    0.0000 C   0  0  0  0  0  0  0  0  0  0  0  0
   14.6299   -2.2782    0.0000 H   0  0  0  0  0  0  0  0  0  0  0  0
   15.8542   -2.2782    0.0000 H   0  0  0  0  0  0  0  0  0  0  0  0
   16.6280    0.0000    0.0000 C   0  0  0  0  0  0  0  0  0  0  0  0
   17.2401    1.4782    0.0000 H   0  0  0  0  0  0  0  0  0  0  0  0
   16.0153    1.4782    0.0000 H   0  0  0  0  0  0  0  0  0  0  0  0
   18.0133   -0.8000    0.0000 C   0  0  0  0  0  0  0  0  0  0  0  0
   17.4012   -2.2782    0.0000 H   0  0  0  0  0  0  0  0  0  0  0  0
   18.6254   -2.2782    0.0000 H   0  0  0  0  0  0  0  0  0  0  0  0
   19.3993    0.0000    0.0000 C   0  0  0  0  0  0  0  0  0  0  0  0
   20.7846    0.8000    0.0000 H   0  0  0  0  0  0  0  0  0  0  0  0
   20.7846   -0.8000    0.0000 H   0  0  0  0  0  0  0  0  0  0  0  0
   19.3993    1.6000    0.0000 H   0  0  0  0  0  0  0  0  0  0  0  0
   -1.3856   -0.8000    0.0000 C   0  0  0  0  0  0  0  0  0  0  0  0
   -1.9977   -2.2782    0.0000 H   0  0  0  0  0  0  0  0  0  0  0  0
   -0.7735   -2.2782    0.0000 H   0  0  0  0  0  0  0  0  0  0  0  0
   -2.7716    0.0000    0.0000 C   0  0  0  0  0  0  0  0  0  0  0  0
   -2.1589    1.4782    0.0000 H   0  0  0  0  0  0  0  0  0  0  0  0
   -3.3837    1.4782    0.0000 H   0  0  0  0  0  0  0  0  0  0  0  0
   -4.1569   -0.8000    0.0000 C   0  0  0  0  0  0  0  0  0  0  0  0
   -4.7690   -2.2782    0.0000 H   0  0  0  0  0  0  0  0  0  0  0  0
   -3.5448   -2.2782    0.0000 H   0  0  0  0  0  0  0  0  0  0  0  0
   -5.5422    0.0000    0.0000 C   0  0  0  0  0  0  0  0  0  0  0  0
   -4.9301    1.4782    0.0000 H   0  0  0  0  0  0  0  0  0  0  0  0
   -6.1550    1.4782    0.0000 H   0  0  0  0  0  0  0  0  0  0  0  0
   -6.9282   -0.8000    0.0000 C   0  0  0  0  0  0  0  0  0  0  0  0
   -7.5403   -2.2782    0.0000 H   0  0  0  0  0  0  0  0  0  0  0  0
   -6.3161   -2.2782    0.0000 H   0  0  0  0  0  0  0  0  0  0  0  0
   -8.3142    0.0000    0.0000 C   0  0  0  0  0  0  0  0  0  0  0  0
   -7.7014    1.4782    0.0000 H   0  0  0  0  0  0  0  0  0  0  0  0
   -8.9263    1.4782    0.0000 H   0  0  0  0  0  0  0  0  0  0  0  0
   -9.6995   -0.8000    0.0000 C   0  0  0  0  0  0  0  0  0  0  0  0
  -10.3116   -2.2782    0.0000 H   0  0  0  0  0  0  0  0  0  0  0  0
   -9.0874   -2.2782    0.0000 H   0  0  0  0  0  0  0  0  0  0  0  0
  -11.0848    0.0000    0.0000 C   0  0  0  0  0  0  0  0  0  0  0  0
  -10.4727    1.4782    0.0000 H   0  0  0  0  0  0  0  0  0  0  0  0
  -11.6975    1.4782    0.0000 H   0  0  0  0  0  0  0  0  0  0  0  0
  -12.4708   -0.8000    0.0000 C   0  0  0  0  0  0  0  0  0  0  0  0
  -13.0829   -2.2782    0.0000 H   0  0  0  0  0  0  0  0  0  0  0  0
  -11.8587   -2.2782    0.0000 H   0  0  0  0  0  0  0  0  0  0  0  0
  -13.8561    0.0000    0.0000 C   0  0  0  0  0  0  0  0  0  0  0  0
  -13.2440    1.4782    0.0000 H   0  0  0  0  0  0  0  0  0  0  0  0
  -14.4688    1.4782    0.0000 H   0  0  0  0  0  0  0  0  0  0  0  0
  -15.2420   -0.8000    0.0000 C   0  0  0  0  0  0  0  0  0  0  0  0
  -15.8542   -2.2782    0.0000 H   0  0  0  0  0  0  0  0  0  0  0  0
  -14.6299   -2.2782    0.0000 H   0  0  0  0  0  0  0  0  0  0  0  0
  -16.6280    0.0000    0.0000 C   0  0  0  0  0  0  0  0  0  0  0  0
  -16.0153    1.4782    0.0000 H   0  0  0  0  0  0  0  0  0  0  0  0
  -17.2401    1.4782    0.0000 H   0  0  0  0  0  0  0  0  0  0  0  0
  -18.0133   -0.8000    0.0000 C   0  0  0  0  0  0  0  0  0  0  0  0
  -18.6254   -2.2782    0.0000 H   0  0  0  0  0  0  0  0  0  0  0  0
  -17.4012   -2.2782    0.0000 H   0  0  0  0  0  0  0  0  0  0  0  0
  -19.3987    0.0000    0.0000 C   0  0  0  0  0  0  0  0  0  0  0  0
  -20.7846    0.8000    0.0000 H   0  0  0  0  0  0  0  0  0  0  0  0
  -20.7846   -0.8000    0.0000 H   0  0  0  0  0  0  0  0  0  0  0  0
  -19.3987    1.6000    0.0000 H   0  0  0  0  0  0  0  0  0  0  0  0
  1  2  1  0  0  0  0
  1  3  1  0  0  0  0
  1  4  1  0  0  0  0
  4  5  1  0  0  0  0
  4  6  1  0  0  0  0
  4  7  1  0  0  0  0
  7  8  1  0  0  0  0
  7  9  1  0  0  0  0
  7 10  1  0  0  0  0
 10 11  1  0  0  0  0
 10 12  1  0  0  0  0
 10 13  1  0  0  0  0
 13 14  1  0  0  0  0
 13 15  1  0  0  0  0
 13 16  1  0  0  0  0
 16 17  1  0  0  0  0
 16 18  1  0  0  0  0
 16 19  1  0  0  0  0
 19 20  1  0  0  0  0
 19 21  1  0  0  0  0
 19 22  1  0  0  0  0
 22 23  1  0  0  0  0
 22 24  1  0  0  0  0
 22 25  1  0  0  0  0
 25 26  1  0  0  0  0
 25 27  1  0  0  0  0
 25 28  1  0  0  0  0
 28 29  1  0  0  0  0
 28 30  1  0  0  0  0
 28 31  1  0  0  0  0
 31 32  1  0  0  0  0
 31 33  1  0  0  0  0
 31 34  1  0  0  0  0
 34 35  1  0  0  0  0
 34 36  1  0  0  0  0
 34 37  1  0  0  0  0
 37 38  1  0  0  0  0
 37 39  1  0  0  0  0
 37 40  1  0  0  0  0
 40 41  1  0  0  0  0
 40 42  1  0  0  0  0
 40 43  1  0  0  0  0
 43 44  1  0  0  0  0
 43 45  1  0  0  0  0
 43 46  1  0  0  0  0
  1 47  1  0  0  0  0
 47 48  1  0  0  0  0
 47 49  1  0  0  0  0
 47 50  1  0  0  0  0
 50 51  1  0  0  0  0
 50 52  1  0  0  0  0
 50 53  1  0  0  0  0
 53 54  1  0  0  0  0
 53 55  1  0  0  0  0
 53 56  1  0  0  0  0
 56 57  1  0  0  0  0
 56 58  1  0  0  0  0
 56 59  1  0  0  0  0
 59 60  1  0  0  0  0
 59 61  1  0  0  0  0
 59 62  1  0  0  0  0
 62 63  1  0  0  0  0
 62 64  1  0  0  0  0
 62 65  1  0  0  0  0
 65 66  1  0  0  0  0
 65 67  1  0  0  0  0
 65 68  1  0  0  0  0
 68 69  1  0  0  0  0
 68 70  1  0  0  0  0
 68 71  1  0  0  0  0
 71 72  1  0  0  0  0
 71 73  1  0  0  0  0
 71 74  1  0  0  0  0
 74 75  1  0  0  0  0
 74 76  1  0  0  0  0
 74 77  1  0  0  0  0
 77 78  1  0  0  0  0
 77 79  1  0  0  0  0
 77 80  1  0  0  0  0
 80 81  1  0  0  0  0
 80 82  1  0  0  0  0
 80 83  1  0  0  0  0
 83 84  1  0  0  0  0
 83 85  1  0  0  0  0
 83 86  1  0  0  0  0
 86 87  1  0  0  0  0
 86 88  1  0  0  0  0
 86 89  1  0  0  0  0
M  END
> <ChemID>
101733

> <source_casrn>
630-03-5

> <CAS>
630-03-5

> <SMILES>
CCCCCCCCCCCCCCCCCCCCCCCCCCCCC

> <NAME>
NONACOSANE

> <preferred_name>
Nonacosane

> <iupac>
Nonacosane

> <MPID>
26324

> <dsstox_substance_id>
DTXSID2060884

> <Canonical_QSARr>
CCCCCCCCCCCCCCCCCCCCCCCCCCCCC

> <InChI_Code_QSARr>
InChI=1S/C29H60/c1-3-5-7-9-11-13-15-17-19-21-23-25-27-29-28-26-24-22-20-18-16-14-12-10-8-6-4-2/h3-29H2,1-2H3

> <InChI Key_QSARr>
IGGUPRCHHJZPBS-UHFFFAOYSA-N

> <Salt_Solvent>
?

> <LogVP>
-9.3665

$$$$
101738
  -INDIGO-08031723152D

 15 14  0  0  0  0  0  0  0  0999 V2000
    0.0000    0.0000    0.0000 C   0  0  0  0  0  0  0  0  0  0  0  0
    1.3856   -0.8000    0.0000 C   0  0  0  0  0  0  0  0  0  0  0  0
    2.7713   -1.6000    0.0000 N   0  0  0  0  0  0  0  0  0  0  0  0
    0.8000    1.3856    0.0000 C   0  0  0  0  0  0  0  0  0  0  0  0
    1.6000    2.7713    0.0000 H   0  0  0  0  0  0  0  0  0  0  0  0
    2.4000    1.3856    0.0000 H   0  0  0  0  0  0  0  0  0  0  0  0
    0.0000    2.7713    0.0000 H   0  0  0  0  0  0  0  0  0  0  0  0
   -1.3856    0.8000    0.0000 C   0  0  0  0  0  0  0  0  0  0  0  0
   -2.7713    1.6000    0.0000 H   0  0  0  0  0  0  0  0  0  0  0  0
   -2.7713    0.0000    0.0000 H   0  0  0  0  0  0  0  0  0  0  0  0
   -1.3856    2.4000    0.0000 H   0  0  0  0  0  0  0  0  0  0  0  0
   -0.8000   -1.3856    0.0000 C   0  0  0  0  0  0  0  0  0  0  0  0
   -1.6000   -2.7713    0.0000 H   0  0  0  0  0  0  0  0  0  0  0  0
    0.0000   -2.7713    0.0000 H   0  0  0  0  0  0  0  0  0  0  0  0
   -2.4000   -1.3856    0.0000 H   0  0  0  0  0  0  0  0  0  0  0  0
  1  2  1  0  0  0  0
  2  3  3  0  0  0  0
  1  4  1  0  0  0  0
  4  5  1  0  0  0  0
  4  6  1  0  0  0  0
  4  7  1  0  0  0  0
  1  8  1  0  0  0  0
  8  9  1  0  0  0  0
  8 10  1  0  0  0  0
  8 11  1  0  0  0  0
  1 12  1  0  0  0  0
 12 13  1  0  0  0  0
 12 14  1  0  0  0  0
 12 15  1  0  0  0  0
M  END
> <ChemID>
101738

> <source_casrn>
630-18-2

> <CAS>
630-18-2

> <SMILES>
CC(C)(C)C#N

> <NAME>
TRIMETHYLACETONITRILE

> <preferred_name>
Propanenitrile, 2,2-dimethyl-

> <iupac>
2,2-Dimethylpropanenitrile

> <MPID>
26328

> <dsstox_substance_id>
DTXSID7060887

> <Canonical_QSARr>
CC(C)(C)C#N

> <InChI_Code_QSARr>
InChI=1S/C5H9N/c1-5(2,3)4-6/h1-3H3

> <InChI Key_QSARr>
JAMNHZBIQDNHMM-UHFFFAOYSA-N

> <Salt_Solvent>
?

> <LogVP>
1.5373

$$$$
101742
  -INDIGO-08031723152D

 12 12  0  0  0  0  0  0  0  0999 V2000
    0.8000    1.3856    0.0000 Cl  0  0  0  0  0  0  0  0  0  0  0  0
   -0.0000   -0.0000    0.0000 C   0  0  0  0  0  0  0  0  0  0  0  0
    0.8000   -1.3857    0.0000 C   0  0  0  0  0  0  0  0  0  0  0  0
    2.4000   -1.3857    0.0000 Cl  0  0  0  0  0  0  0  0  0  0  0  0
   -0.0000   -2.7713    0.0000 C   0  0  0  0  0  0  0  0  0  0  0  0
    0.8000   -4.1569    0.0000 H   0  0  0  0  0  0  0  0  0  0  0  0
   -1.6000   -2.7713    0.0000 C   0  0  0  0  0  0  0  0  0  0  0  0
   -2.4000   -4.1569    0.0000 Cl  0  0  0  0  0  0  0  0  0  0  0  0
   -2.4000   -1.3856    0.0000 C   0  0  0  0  0  0  0  0  0  0  0  0
   -4.0000   -1.3856    0.0000 H   0  0  0  0  0  0  0  0  0  0  0  0
   -1.6000   -0.0000    0.0000 C   0  0  0  0  0  0  0  0  0  0  0  0
   -2.4000    1.3856    0.0000 Cl  0  0  0  0  0  0  0  0  0  0  0  0
  1  2  1  0  0  0  0
  2  3  1  0  0  0  0
  3  4  1  0  0  0  0
  3  5  2  0  0  0  0
  5  6  1  0  0  0  0
  5  7  1  0  0  0  0
  7  8  1  0  0  0  0
  7  9  2  0  0  0  0
  9 10  1  0  0  0  0
  9 11  1  0  0  0  0
 11  2  2  0  0  0  0
 11 12  1  0  0  0  0
M  END
> <ChemID>
101742

> <source_casrn>
634-90-2

> <CAS>
634-90-2

> <SMILES>
Clc1cc(Cl)c(Cl)c(Cl)c1

> <NAME>
1,2,3,5-TETRACHLOROBENZENE

> <preferred_name>
1,2,3,5-Tetrachlorobenzene

> <iupac>
1,2,3,5-tetrachlorobenzene

> <MPID>
26332

> <dsstox_substance_id>
DTXSID1026089

> <Canonical_QSARr>
Clc1cc(Cl)c(Cl)c(Cl)c1

> <InChI_Code_QSARr>
InChI=1S/C6H2Cl4/c7-3-1-4(8)6(10)5(9)2-3/h1-2H

> <InChI Key_QSARr>
QZYNWJQFTJXIRN-UHFFFAOYSA-N

> <Salt_Solvent>
?

> <LogVP>
-1.2573

$$$$
101746
  -INDIGO-08031723152D

 12 12  0  0  0  0  0  0  0  0999 V2000
   -0.0000   -0.0000    0.0000 C   0  0  0  0  0  0  0  0  0  0  0  0
    0.8000   -1.3857    0.0000 C   0  0  0  0  0  0  0  0  0  0  0  0
    2.4000   -1.3857    0.0000 H   0  0  0  0  0  0  0  0  0  0  0  0
   -0.0000   -2.7713    0.0000 C   0  0  0  0  0  0  0  0  0  0  0  0
    0.8000   -4.1569    0.0000 H   0  0  0  0  0  0  0  0  0  0  0  0
   -1.6000   -2.7713    0.0000 C   0  0  0  0  0  0  0  0  0  0  0  0
   -2.4000   -4.1569    0.0000 I   0  0  0  0  0  0  0  0  0  0  0  0
   -2.4000   -1.3856    0.0000 C   0  0  0  0  0  0  0  0  0  0  0  0
   -4.0000   -1.3856    0.0000 H   0  0  0  0  0  0  0  0  0  0  0  0
   -1.6000   -0.0000    0.0000 C   0  0  0  0  0  0  0  0  0  0  0  0
   -2.4000    1.3856    0.0000 H   0  0  0  0  0  0  0  0  0  0  0  0
    0.8000    1.3856    0.0000 Cl  0  0  0  0  0  0  0  0  0  0  0  0
  1  2  1  0  0  0  0
  2  3  1  0  0  0  0
  2  4  2  0  0  0  0
  4  5  1  0  0  0  0
  4  6  1  0  0  0  0
  6  7  1  0  0  0  0
  6  8  2  0  0  0  0
  8  9  1  0  0  0  0
  8 10  1  0  0  0  0
 10  1  2  0  0  0  0
 10 11  1  0  0  0  0
  1 12  1  0  0  0  0
M  END
> <ChemID>
101746

> <source_casrn>
637-87-6

> <CAS>
637-87-6

> <SMILES>
Clc1ccc(I)cc1

> <NAME>
4-CHLOROIODOBENZENE

> <preferred_name>
Benzene, 1-chloro-4-iodo-

> <iupac>
1-Chloro-4-iodobenzene

> <MPID>
26336

> <dsstox_substance_id>
DTXSID1060928

> <Canonical_QSARr>
Clc1ccc(I)cc1

> <InChI_Code_QSARr>
InChI=1S/C6H4ClI/c7-5-1-3-6(8)4-2-5/h1-4H

> <InChI Key_QSARr>
GWQSENYKCGJTRI-UHFFFAOYSA-N

> <Salt_Solvent>
?

> <LogVP>
-1.2299

$$$$
101751
  -INDIGO-08031723152D

 20 19  0  0  0  0  0  0  0  0999 V2000
    2.7713    0.0000    0.0000 C   0  0  0  0  0  0  0  0  0  0  0  0
    4.1569    0.8000    0.0000 H   0  0  0  0  0  0  0  0  0  0  0  0
    4.1569   -0.8000    0.0000 H   0  0  0  0  0  0  0  0  0  0  0  0
    2.7713    1.6000    0.0000 H   0  0  0  0  0  0  0  0  0  0  0  0
    1.3857   -0.8000    0.0000 C   0  0  0  0  0  0  0  0  0  0  0  0
    0.7734   -2.2782    0.0000 H   0  0  0  0  0  0  0  0  0  0  0  0
    0.0001    0.0000    0.0000 C   0  0  0  0  0  0  0  0  0  0  0  0
    0.6124    1.4782    0.0000 H   0  0  0  0  0  0  0  0  0  0  0  0
   -0.6122    1.4782    0.0000 H   0  0  0  0  0  0  0  0  0  0  0  0
   -1.3857   -0.8000    0.0000 C   0  0  0  0  0  0  0  0  0  0  0  0
   -1.9980   -2.2782    0.0000 H   0  0  0  0  0  0  0  0  0  0  0  0
   -0.7734   -2.2782    0.0000 H   0  0  0  0  0  0  0  0  0  0  0  0
   -2.7713    0.0000    0.0000 C   0  0  0  0  0  0  0  0  0  0  0  0
   -2.1590    1.4782    0.0000 H   0  0  0  0  0  0  0  0  0  0  0  0
   -3.3836    1.4782    0.0000 H   0  0  0  0  0  0  0  0  0  0  0  0
   -4.1569   -0.8000    0.0000 C   0  0  0  0  0  0  0  0  0  0  0  0
   -5.5426   -1.6000    0.0000 H   0  0  0  0  0  0  0  0  0  0  0  0
   -5.5426    0.0000    0.0000 H   0  0  0  0  0  0  0  0  0  0  0  0
   -4.1569   -2.4000    0.0000 H   0  0  0  0  0  0  0  0  0  0  0  0
    1.9980   -2.2782    0.0000 Cl  0  0  0  0  0  0  0  0  0  0  0  0
  1  2  1  0  0  0  0
  1  3  1  0  0  0  0
  1  4  1  0  0  0  0
  1  5  1  0  0  0  0
  5  6  1  0  0  0  0
  5  7  1  0  0  0  0
  7  8  1  0  0  0  0
  7  9  1  0  0  0  0
  7 10  1  0  0  0  0
 10 11  1  0  0  0  0
 10 12  1  0  0  0  0
 10 13  1  0  0  0  0
 13 14  1  0  0  0  0
 13 15  1  0  0  0  0
 13 16  1  0  0  0  0
 16 17  1  0  0  0  0
 16 18  1  0  0  0  0
 16 19  1  0  0  0  0
  5 20  1  0  0  0  0
M  END
> <ChemID>
101751

> <source_casrn>
638-28-8

> <CAS>
NOCAS_867751

> <SMILES>
CCCCC(C)Cl

> <NAME>
2-CHLOROHEXANE

> <preferred_name>


> <iupac>


> <MPID>
26341

> <dsstox_substance_id>
DTXSID00867751

> <Canonical_QSARr>
CCCCC(C)Cl

> <InChI_Code_QSARr>
InChI=1S/C6H13Cl/c1-3-4-5-6(2)7/h6H,3-5H2,1-2H3

> <InChI Key_QSARr>
GLCIPJOIEVLTPR-UHFFFAOYSA-N

> <Salt_Solvent>
?

> <LogVP>
1.1347

$$$$
101755
  -INDIGO-08031723152D

 92 91  0  0  0  0  0  0  0  0999 V2000
   -0.0003    0.0000    0.0000 C   0  0  0  0  0  0  0  0  0  0  0  0
    0.6125    1.4782    0.0000 H   0  0  0  0  0  0  0  0  0  0  0  0
   -0.6125    1.4782    0.0000 H   0  0  0  0  0  0  0  0  0  0  0  0
    1.3860   -0.8000    0.0000 C   0  0  0  0  0  0  0  0  0  0  0  0
    0.7731   -2.2782    0.0000 H   0  0  0  0  0  0  0  0  0  0  0  0
    1.9981   -2.2782    0.0000 H   0  0  0  0  0  0  0  0  0  0  0  0
    2.7716    0.0000    0.0000 C   0  0  0  0  0  0  0  0  0  0  0  0
    3.3838    1.4782    0.0000 H   0  0  0  0  0  0  0  0  0  0  0  0
    2.1587    1.4782    0.0000 H   0  0  0  0  0  0  0  0  0  0  0  0
    4.1572   -0.8000    0.0000 C   0  0  0  0  0  0  0  0  0  0  0  0
    3.5444   -2.2782    0.0000 H   0  0  0  0  0  0  0  0  0  0  0  0
    4.7694   -2.2782    0.0000 H   0  0  0  0  0  0  0  0  0  0  0  0
    5.5428    0.0000    0.0000 C   0  0  0  0  0  0  0  0  0  0  0  0
    6.1550    1.4782    0.0000 H   0  0  0  0  0  0  0  0  0  0  0  0
    4.9300    1.4782    0.0000 H   0  0  0  0  0  0  0  0  0  0  0  0
    6.9284   -0.8000    0.0000 C   0  0  0  0  0  0  0  0  0  0  0  0
    6.3156   -2.2782    0.0000 H   0  0  0  0  0  0  0  0  0  0  0  0
    7.5406   -2.2782    0.0000 H   0  0  0  0  0  0  0  0  0  0  0  0
    8.3141    0.0000    0.0000 C   0  0  0  0  0  0  0  0  0  0  0  0
    8.9262    1.4782    0.0000 H   0  0  0  0  0  0  0  0  0  0  0  0
    7.7019    1.4782    0.0000 H   0  0  0  0  0  0  0  0  0  0  0  0
    9.6997   -0.8000    0.0000 C   0  0  0  0  0  0  0  0  0  0  0  0
    9.0875   -2.2782    0.0000 H   0  0  0  0  0  0  0  0  0  0  0  0
   10.3119   -2.2782    0.0000 H   0  0  0  0  0  0  0  0  0  0  0  0
   11.0853    0.0000    0.0000 C   0  0  0  0  0  0  0  0  0  0  0  0
   11.6975    1.4782    0.0000 H   0  0  0  0  0  0  0  0  0  0  0  0
   10.4731    1.4782    0.0000 H   0  0  0  0  0  0  0  0  0  0  0  0
   12.4709   -0.8000    0.0000 C   0  0  0  0  0  0  0  0  0  0  0  0
   11.8587   -2.2782    0.0000 H   0  0  0  0  0  0  0  0  0  0  0  0
   13.0831   -2.2782    0.0000 H   0  0  0  0  0  0  0  0  0  0  0  0
   13.8565    0.0000    0.0000 C   0  0  0  0  0  0  0  0  0  0  0  0
   14.4687    1.4782    0.0000 H   0  0  0  0  0  0  0  0  0  0  0  0
   13.2443    1.4782    0.0000 H   0  0  0  0  0  0  0  0  0  0  0  0
   15.2422   -0.8000    0.0000 C   0  0  0  0  0  0  0  0  0  0  0  0
   14.6300   -2.2782    0.0000 H   0  0  0  0  0  0  0  0  0  0  0  0
   15.8543   -2.2782    0.0000 H   0  0  0  0  0  0  0  0  0  0  0  0
   16.6278    0.0000    0.0000 C   0  0  0  0  0  0  0  0  0  0  0  0
   17.2400    1.4782    0.0000 H   0  0  0  0  0  0  0  0  0  0  0  0
   16.0156    1.4782    0.0000 H   0  0  0  0  0  0  0  0  0  0  0  0
   18.0134   -0.8000    0.0000 C   0  0  0  0  0  0  0  0  0  0  0  0
   17.4012   -2.2782    0.0000 H   0  0  0  0  0  0  0  0  0  0  0  0
   18.6256   -2.2782    0.0000 H   0  0  0  0  0  0  0  0  0  0  0  0
   19.3990    0.0000    0.0000 C   0  0  0  0  0  0  0  0  0  0  0  0
   20.0112    1.4782    0.0000 H   0  0  0  0  0  0  0  0  0  0  0  0
   18.7868    1.4782    0.0000 H   0  0  0  0  0  0  0  0  0  0  0  0
   20.7846   -0.8000    0.0000 C   0  0  0  0  0  0  0  0  0  0  0  0
   22.1703   -1.6000    0.0000 H   0  0  0  0  0  0  0  0  0  0  0  0
   22.1703    0.0000    0.0000 H   0  0  0  0  0  0  0  0  0  0  0  0
   20.7846   -2.4000    0.0000 H   0  0  0  0  0  0  0  0  0  0  0  0
   -1.3859   -0.8000    0.0000 C   0  0  0  0  0  0  0  0  0  0  0  0
   -1.9981   -2.2782    0.0000 H   0  0  0  0  0  0  0  0  0  0  0  0
   -0.7731   -2.2782    0.0000 H   0  0  0  0  0  0  0  0  0  0  0  0
   -2.7716    0.0000    0.0000 C   0  0  0  0  0  0  0  0  0  0  0  0
   -2.1587    1.4782    0.0000 H   0  0  0  0  0  0  0  0  0  0  0  0
   -3.3837    1.4782    0.0000 H   0  0  0  0  0  0  0  0  0  0  0  0
   -4.1572   -0.8000    0.0000 C   0  0  0  0  0  0  0  0  0  0  0  0
   -4.7694   -2.2782    0.0000 H   0  0  0  0  0  0  0  0  0  0  0  0
   -3.5443   -2.2782    0.0000 H   0  0  0  0  0  0  0  0  0  0  0  0
   -5.5428    0.0000    0.0000 C   0  0  0  0  0  0  0  0  0  0  0  0
   -4.9299    1.4782    0.0000 H   0  0  0  0  0  0  0  0  0  0  0  0
   -6.1550    1.4782    0.0000 H   0  0  0  0  0  0  0  0  0  0  0  0
   -6.9284   -0.8000    0.0000 C   0  0  0  0  0  0  0  0  0  0  0  0
   -7.5406   -2.2782    0.0000 H   0  0  0  0  0  0  0  0  0  0  0  0
   -6.3162   -2.2782    0.0000 H   0  0  0  0  0  0  0  0  0  0  0  0
   -8.3140    0.0000    0.0000 C   0  0  0  0  0  0  0  0  0  0  0  0
   -7.7018    1.4782    0.0000 H   0  0  0  0  0  0  0  0  0  0  0  0
   -8.9262    1.4782    0.0000 H   0  0  0  0  0  0  0  0  0  0  0  0
   -9.6997   -0.8000    0.0000 C   0  0  0  0  0  0  0  0  0  0  0  0
  -10.3118   -2.2782    0.0000 H   0  0  0  0  0  0  0  0  0  0  0  0
   -9.0875   -2.2782    0.0000 H   0  0  0  0  0  0  0  0  0  0  0  0
  -11.0853    0.0000    0.0000 C   0  0  0  0  0  0  0  0  0  0  0  0
  -10.4731    1.4782    0.0000 H   0  0  0  0  0  0  0  0  0  0  0  0
  -11.6975    1.4782    0.0000 H   0  0  0  0  0  0  0  0  0  0  0  0
  -12.4709   -0.8000    0.0000 C   0  0  0  0  0  0  0  0  0  0  0  0
  -13.0831   -2.2782    0.0000 H   0  0  0  0  0  0  0  0  0  0  0  0
  -11.8587   -2.2782    0.0000 H   0  0  0  0  0  0  0  0  0  0  0  0
  -13.8565    0.0000    0.0000 C   0  0  0  0  0  0  0  0  0  0  0  0
  -13.2443    1.4782    0.0000 H   0  0  0  0  0  0  0  0  0  0  0  0
  -14.4687    1.4782    0.0000 H   0  0  0  0  0  0  0  0  0  0  0  0
  -15.2421   -0.8000    0.0000 C   0  0  0  0  0  0  0  0  0  0  0  0
  -15.8543   -2.2782    0.0000 H   0  0  0  0  0  0  0  0  0  0  0  0
  -14.6299   -2.2782    0.0000 H   0  0  0  0  0  0  0  0  0  0  0  0
  -16.6278    0.0000    0.0000 C   0  0  0  0  0  0  0  0  0  0  0  0
  -16.0156    1.4782    0.0000 H   0  0  0  0  0  0  0  0  0  0  0  0
  -17.2399    1.4782    0.0000 H   0  0  0  0  0  0  0  0  0  0  0  0
  -18.0134   -0.8000    0.0000 C   0  0  0  0  0  0  0  0  0  0  0  0
  -18.6256   -2.2782    0.0000 H   0  0  0  0  0  0  0  0  0  0  0  0
  -17.4012   -2.2782    0.0000 H   0  0  0  0  0  0  0  0  0  0  0  0
  -19.3990    0.0000    0.0000 C   0  0  0  0  0  0  0  0  0  0  0  0
  -20.7846    0.8000    0.0000 H   0  0  0  0  0  0  0  0  0  0  0  0
  -20.7846   -0.8000    0.0000 H   0  0  0  0  0  0  0  0  0  0  0  0
  -19.3990    1.6000    0.0000 H   0  0  0  0  0  0  0  0  0  0  0  0
  1  2  1  0  0  0  0
  1  3  1  0  0  0  0
  1  4  1  0  0  0  0
  4  5  1  0  0  0  0
  4  6  1  0  0  0  0
  4  7  1  0  0  0  0
  7  8  1  0  0  0  0
  7  9  1  0  0  0  0
  7 10  1  0  0  0  0
 10 11  1  0  0  0  0
 10 12  1  0  0  0  0
 10 13  1  0  0  0  0
 13 14  1  0  0  0  0
 13 15  1  0  0  0  0
 13 16  1  0  0  0  0
 16 17  1  0  0  0  0
 16 18  1  0  0  0  0
 16 19  1  0  0  0  0
 19 20  1  0  0  0  0
 19 21  1  0  0  0  0
 19 22  1  0  0  0  0
 22 23  1  0  0  0  0
 22 24  1  0  0  0  0
 22 25  1  0  0  0  0
 25 26  1  0  0  0  0
 25 27  1  0  0  0  0
 25 28  1  0  0  0  0
 28 29  1  0  0  0  0
 28 30  1  0  0  0  0
 28 31  1  0  0  0  0
 31 32  1  0  0  0  0
 31 33  1  0  0  0  0
 31 34  1  0  0  0  0
 34 35  1  0  0  0  0
 34 36  1  0  0  0  0
 34 37  1  0  0  0  0
 37 38  1  0  0  0  0
 37 39  1  0  0  0  0
 37 40  1  0  0  0  0
 40 41  1  0  0  0  0
 40 42  1  0  0  0  0
 40 43  1  0  0  0  0
 43 44  1  0  0  0  0
 43 45  1  0  0  0  0
 43 46  1  0  0  0  0
 46 47  1  0  0  0  0
 46 48  1  0  0  0  0
 46 49  1  0  0  0  0
  1 50  1  0  0  0  0
 50 51  1  0  0  0  0
 50 52  1  0  0  0  0
 50 53  1  0  0  0  0
 53 54  1  0  0  0  0
 53 55  1  0  0  0  0
 53 56  1  0  0  0  0
 56 57  1  0  0  0  0
 56 58  1  0  0  0  0
 56 59  1  0  0  0  0
 59 60  1  0  0  0  0
 59 61  1  0  0  0  0
 59 62  1  0  0  0  0
 62 63  1  0  0  0  0
 62 64  1  0  0  0  0
 62 65  1  0  0  0  0
 65 66  1  0  0  0  0
 65 67  1  0  0  0  0
 65 68  1  0  0  0  0
 68 69  1  0  0  0  0
 68 70  1  0  0  0  0
 68 71  1  0  0  0  0
 71 72  1  0  0  0  0
 71 73  1  0  0  0  0
 71 74  1  0  0  0  0
 74 75  1  0  0  0  0
 74 76  1  0  0  0  0
 74 77  1  0  0  0  0
 77 78  1  0  0  0  0
 77 79  1  0  0  0  0
 77 80  1  0  0  0  0
 80 81  1  0  0  0  0
 80 82  1  0  0  0  0
 80 83  1  0  0  0  0
 83 84  1  0  0  0  0
 83 85  1  0  0  0  0
 83 86  1  0  0  0  0
 86 87  1  0  0  0  0
 86 88  1  0  0  0  0
 86 89  1  0  0  0  0
 89 90  1  0  0  0  0
 89 91  1  0  0  0  0
 89 92  1  0  0  0  0
M  END
> <ChemID>
101755

> <source_casrn>
638-68-6

> <CAS>
638-68-6

> <SMILES>
CCCCCCCCCCCCCCCCCCCCCCCCCCCCCC

> <NAME>
TRIACONTANE

> <preferred_name>
Triacontane

> <iupac>
TRIACONTANE

> <MPID>
26345

> <dsstox_substance_id>
DTXSID0060935

> <Canonical_QSARr>
CCCCCCCCCCCCCCCCCCCCCCCCCCCCCC

> <InChI_Code_QSARr>
InChI=1S/C30H62/c1-3-5-7-9-11-13-15-17-19-21-23-25-27-29-30-28-26-24-22-20-18-16-14-12-10-8-6-4-2/h3-30H2,1-2H3

> <InChI Key_QSARr>
JXTPJDDICSTXJX-UHFFFAOYSA-N

> <Salt_Solvent>
?

> <LogVP>
-10.5638

$$$$
101759
  -INDIGO-08031723152D

 33 33  0  0  0  0  0  0  0  0999 V2000
    0.0000    1.6000    0.0000 N   0  0  0  0  0  0  0  0  0  0  0  0
    1.2945    2.5404    0.0000 C   0  0  0  0  0  0  0  0  0  0  0  0
    1.1273    4.1317    0.0000 N   0  0  0  0  0  0  0  0  0  0  0  0
    2.4215    5.0722    0.0000 C   0  0  0  0  0  0  0  0  0  0  0  0
    3.7160    6.0126    0.0000 H   0  0  0  0  0  0  0  0  0  0  0  0
    2.2543    6.6634    0.0000 H   0  0  0  0  0  0  0  0  0  0  0  0
    3.8833    4.4214    0.0000 H   0  0  0  0  0  0  0  0  0  0  0  0
   -0.3345    4.7824    0.0000 C   0  0  0  0  0  0  0  0  0  0  0  0
   -0.5017    6.3736    0.0000 H   0  0  0  0  0  0  0  0  0  0  0  0
   -1.7962    5.4333    0.0000 H   0  0  0  0  0  0  0  0  0  0  0  0
   -1.6289    3.8421    0.0000 H   0  0  0  0  0  0  0  0  0  0  0  0
    2.7561    1.8897    0.0000 O   0  0  0  0  0  0  0  0  0  0  0  0
   -1.5218    2.0944    0.0000 N   0  0  0  0  0  0  0  0  0  0  0  0
   -2.4621    0.8001    0.0000 C   0  0  0  0  0  0  0  0  0  0  0  0
   -4.0621    0.8001    0.0000 O   0  0  0  0  0  0  0  0  0  0  0  0
   -4.8622    2.1856    0.0000 C   0  0  0  0  0  0  0  0  0  0  0  0
   -6.4622    2.1856    0.0000 N   0  0  0  0  0  0  0  0  0  0  0  0
   -7.2621    3.5713    0.0000 C   0  0  0  0  0  0  0  0  0  0  0  0
   -8.0622    4.9570    0.0000 H   0  0  0  0  0  0  0  0  0  0  0  0
   -8.8621    3.5713    0.0000 H   0  0  0  0  0  0  0  0  0  0  0  0
   -6.4622    4.9570    0.0000 H   0  0  0  0  0  0  0  0  0  0  0  0
   -7.2621    0.8001    0.0000 C   0  0  0  0  0  0  0  0  0  0  0  0
   -8.0622   -0.5856    0.0000 H   0  0  0  0  0  0  0  0  0  0  0  0
   -8.8621    0.8001    0.0000 H   0  0  0  0  0  0  0  0  0  0  0  0
   -6.4622   -0.5856    0.0000 H   0  0  0  0  0  0  0  0  0  0  0  0
   -4.0621    3.5713    0.0000 O   0  0  0  0  0  0  0  0  0  0  0  0
   -1.5218   -0.4944    0.0000 C   0  0  0  0  0  0  0  0  0  0  0  0
   -2.0162   -2.0161    0.0000 H   0  0  0  0  0  0  0  0  0  0  0  0
    0.0000    0.0000    0.0000 C   0  0  0  0  0  0  0  0  0  0  0  0
    1.2945   -0.9405    0.0000 C   0  0  0  0  0  0  0  0  0  0  0  0
    2.5888   -1.8809    0.0000 H   0  0  0  0  0  0  0  0  0  0  0  0
    1.1273   -2.5317    0.0000 H   0  0  0  0  0  0  0  0  0  0  0  0
    2.7561   -0.2897    0.0000 H   0  0  0  0  0  0  0  0  0  0  0  0
  1  2  1  0  0  0  0
  2  3  1  0  0  0  0
  3  4  1  0  0  0  0
  4  5  1  0  0  0  0
  4  6  1  0  0  0  0
  4  7  1  0  0  0  0
  3  8  1  0  0  0  0
  8  9  1  0  0  0  0
  8 10  1  0  0  0  0
  8 11  1  0  0  0  0
  2 12  2  0  0  0  0
  1 13  1  0  0  0  0
 13 14  2  0  0  0  0
 14 15  1  0  0  0  0
 15 16  1  0  0  0  0
 16 17  1  0  0  0  0
 17 18  1  0  0  0  0
 18 19  1  0  0  0  0
 18 20  1  0  0  0  0
 18 21  1  0  0  0  0
 17 22  1  0  0  0  0
 22 23  1  0  0  0  0
 22 24  1  0  0  0  0
 22 25  1  0  0  0  0
 16 26  2  0  0  0  0
 14 27  1  0  0  0  0
 27 28  1  0  0  0  0
 27 29  2  0  0  0  0
 29  1  1  0  0  0  0
 29 30  1  0  0  0  0
 30 31  1  0  0  0  0
 30 32  1  0  0  0  0
 30 33  1  0  0  0  0
M  END
> <ChemID>
101759

> <source_casrn>
644-64-4

> <CAS>
644-64-4

> <SMILES>
Cc1cc([n][n]1C(=O)N(C)C)OC(=O)N(C)C

> <NAME>
DIMETILAN

> <preferred_name>
Dimetilan

> <iupac>
1-(dimethylcarbamoyl)-5-methyl-1H-pyrazol-3-yl dimethylcarbamate

> <MPID>
26349

> <dsstox_substance_id>
DTXSID2041880

> <Canonical_QSARr>
Cc1cc([n][n]1C(=O)N(C)C)OC(=O)N(C)C

> <InChI_Code_QSARr>
InChI=1S/C10H16N4O3/c1-7-6-8(17-10(16)13(4)5)11-14(7)9(15)12(2)3/h6H,1-5H3

> <InChI Key_QSARr>
RDBIYWSVMRVKSG-UHFFFAOYSA-N

> <Salt_Solvent>
?

> <LogVP>
-4.0132

$$$$
101765
  -INDIGO-08031723152D

 74 73  0  0  0  0  0  0  0  0999 V2000
    0.0001    0.0000    0.0000 C   0  0  0  0  0  0  0  0  0  0  0  0
    0.6122    1.4782    0.0000 H   0  0  0  0  0  0  0  0  0  0  0  0
   -0.6125    1.4782    0.0000 H   0  0  0  0  0  0  0  0  0  0  0  0
    1.3855   -0.8000    0.0000 C   0  0  0  0  0  0  0  0  0  0  0  0
    0.7734   -2.2782    0.0000 H   0  0  0  0  0  0  0  0  0  0  0  0
    1.9982   -2.2782    0.0000 H   0  0  0  0  0  0  0  0  0  0  0  0
    2.7715    0.0000    0.0000 C   0  0  0  0  0  0  0  0  0  0  0  0
    3.3836    1.4782    0.0000 H   0  0  0  0  0  0  0  0  0  0  0  0
    2.1589    1.4782    0.0000 H   0  0  0  0  0  0  0  0  0  0  0  0
    4.1569   -0.8000    0.0000 C   0  0  0  0  0  0  0  0  0  0  0  0
    3.5448   -2.2782    0.0000 H   0  0  0  0  0  0  0  0  0  0  0  0
    4.7690   -2.2782    0.0000 H   0  0  0  0  0  0  0  0  0  0  0  0
    5.5424    0.0000    0.0000 C   0  0  0  0  0  0  0  0  0  0  0  0
    6.1550    1.4782    0.0000 H   0  0  0  0  0  0  0  0  0  0  0  0
    4.9302    1.4782    0.0000 H   0  0  0  0  0  0  0  0  0  0  0  0
    6.9283   -0.8000    0.0000 C   0  0  0  0  0  0  0  0  0  0  0  0
    6.3157   -2.2782    0.0000 H   0  0  0  0  0  0  0  0  0  0  0  0
    7.5404   -2.2782    0.0000 H   0  0  0  0  0  0  0  0  0  0  0  0
    8.3137    0.0000    0.0000 C   0  0  0  0  0  0  0  0  0  0  0  0
    8.9264    1.4782    0.0000 H   0  0  0  0  0  0  0  0  0  0  0  0
    7.7016    1.4782    0.0000 H   0  0  0  0  0  0  0  0  0  0  0  0
    9.6997   -0.8000    0.0000 C   0  0  0  0  0  0  0  0  0  0  0  0
    9.0871   -2.2782    0.0000 H   0  0  0  0  0  0  0  0  0  0  0  0
   10.3118   -2.2782    0.0000 H   0  0  0  0  0  0  0  0  0  0  0  0
   11.0851    0.0000    0.0000 C   0  0  0  0  0  0  0  0  0  0  0  0
   11.6972    1.4782    0.0000 H   0  0  0  0  0  0  0  0  0  0  0  0
   10.4730    1.4782    0.0000 H   0  0  0  0  0  0  0  0  0  0  0  0
   12.4706   -0.8000    0.0000 C   0  0  0  0  0  0  0  0  0  0  0  0
   11.8585   -2.2782    0.0000 H   0  0  0  0  0  0  0  0  0  0  0  0
   13.0832   -2.2782    0.0000 H   0  0  0  0  0  0  0  0  0  0  0  0
   13.8565    0.0000    0.0000 C   0  0  0  0  0  0  0  0  0  0  0  0
   14.4686    1.4782    0.0000 H   0  0  0  0  0  0  0  0  0  0  0  0
   13.2439    1.4782    0.0000 H   0  0  0  0  0  0  0  0  0  0  0  0
   15.2419   -0.8000    0.0000 C   0  0  0  0  0  0  0  0  0  0  0  0
   14.6298   -2.2782    0.0000 H   0  0  0  0  0  0  0  0  0  0  0  0
   15.8546   -2.2782    0.0000 H   0  0  0  0  0  0  0  0  0  0  0  0
   16.6279    0.0000    0.0000 C   0  0  0  0  0  0  0  0  0  0  0  0
   18.0133    0.8000    0.0000 H   0  0  0  0  0  0  0  0  0  0  0  0
   18.0133   -0.8000    0.0000 H   0  0  0  0  0  0  0  0  0  0  0  0
   16.6279    1.6000    0.0000 H   0  0  0  0  0  0  0  0  0  0  0  0
   -1.3859   -0.8000    0.0000 C   0  0  0  0  0  0  0  0  0  0  0  0
   -1.9980   -2.2782    0.0000 H   0  0  0  0  0  0  0  0  0  0  0  0
   -0.7732   -2.2782    0.0000 H   0  0  0  0  0  0  0  0  0  0  0  0
   -2.7713    0.0000    0.0000 C   0  0  0  0  0  0  0  0  0  0  0  0
   -2.1592    1.4782    0.0000 H   0  0  0  0  0  0  0  0  0  0  0  0
   -3.3834    1.4782    0.0000 H   0  0  0  0  0  0  0  0  0  0  0  0
   -4.1567   -0.8000    0.0000 C   0  0  0  0  0  0  0  0  0  0  0  0
   -4.7693   -2.2782    0.0000 H   0  0  0  0  0  0  0  0  0  0  0  0
   -3.5446   -2.2782    0.0000 H   0  0  0  0  0  0  0  0  0  0  0  0
   -5.5427    0.0000    0.0000 C   0  0  0  0  0  0  0  0  0  0  0  0
   -4.9300    1.4782    0.0000 H   0  0  0  0  0  0  0  0  0  0  0  0
   -6.1548    1.4782    0.0000 H   0  0  0  0  0  0  0  0  0  0  0  0
   -6.9281   -0.8000    0.0000 C   0  0  0  0  0  0  0  0  0  0  0  0
   -7.5407   -2.2782    0.0000 H   0  0  0  0  0  0  0  0  0  0  0  0
   -6.3160   -2.2782    0.0000 H   0  0  0  0  0  0  0  0  0  0  0  0
   -8.3141    0.0000    0.0000 C   0  0  0  0  0  0  0  0  0  0  0  0
   -7.7014    1.4782    0.0000 H   0  0  0  0  0  0  0  0  0  0  0  0
   -8.9262    1.4782    0.0000 H   0  0  0  0  0  0  0  0  0  0  0  0
   -9.6995   -0.8000    0.0000 C   0  0  0  0  0  0  0  0  0  0  0  0
  -10.3116   -2.2782    0.0000 H   0  0  0  0  0  0  0  0  0  0  0  0
   -9.0874   -2.2782    0.0000 H   0  0  0  0  0  0  0  0  0  0  0  0
  -11.0849    0.0000    0.0000 C   0  0  0  0  0  0  0  0  0  0  0  0
  -10.4728    1.4782    0.0000 H   0  0  0  0  0  0  0  0  0  0  0  0
  -11.6975    1.4782    0.0000 H   0  0  0  0  0  0  0  0  0  0  0  0
  -12.4709   -0.8000    0.0000 C   0  0  0  0  0  0  0  0  0  0  0  0
  -13.0830   -2.2782    0.0000 H   0  0  0  0  0  0  0  0  0  0  0  0
  -11.8582   -2.2782    0.0000 H   0  0  0  0  0  0  0  0  0  0  0  0
  -13.8563    0.0000    0.0000 C   0  0  0  0  0  0  0  0  0  0  0  0
  -13.2442    1.4782    0.0000 H   0  0  0  0  0  0  0  0  0  0  0  0
  -14.4689    1.4782    0.0000 H   0  0  0  0  0  0  0  0  0  0  0  0
  -15.2423   -0.8000    0.0000 C   0  0  0  0  0  0  0  0  0  0  0  0
  -16.6277   -1.6000    0.0000 H   0  0  0  0  0  0  0  0  0  0  0  0
  -16.6277    0.0000    0.0000 H   0  0  0  0  0  0  0  0  0  0  0  0
  -15.2423   -2.4000    0.0000 H   0  0  0  0  0  0  0  0  0  0  0  0
  1  2  1  0  0  0  0
  1  3  1  0  0  0  0
  1  4  1  0  0  0  0
  4  5  1  0  0  0  0
  4  6  1  0  0  0  0
  4  7  1  0  0  0  0
  7  8  1  0  0  0  0
  7  9  1  0  0  0  0
  7 10  1  0  0  0  0
 10 11  1  0  0  0  0
 10 12  1  0  0  0  0
 10 13  1  0  0  0  0
 13 14  1  0  0  0  0
 13 15  1  0  0  0  0
 13 16  1  0  0  0  0
 16 17  1  0  0  0  0
 16 18  1  0  0  0  0
 16 19  1  0  0  0  0
 19 20  1  0  0  0  0
 19 21  1  0  0  0  0
 19 22  1  0  0  0  0
 22 23  1  0  0  0  0
 22 24  1  0  0  0  0
 22 25  1  0  0  0  0
 25 26  1  0  0  0  0
 25 27  1  0  0  0  0
 25 28  1  0  0  0  0
 28 29  1  0  0  0  0
 28 30  1  0  0  0  0
 28 31  1  0  0  0  0
 31 32  1  0  0  0  0
 31 33  1  0  0  0  0
 31 34  1  0  0  0  0
 34 35  1  0  0  0  0
 34 36  1  0  0  0  0
 34 37  1  0  0  0  0
 37 38  1  0  0  0  0
 37 39  1  0  0  0  0
 37 40  1  0  0  0  0
  1 41  1  0  0  0  0
 41 42  1  0  0  0  0
 41 43  1  0  0  0  0
 41 44  1  0  0  0  0
 44 45  1  0  0  0  0
 44 46  1  0  0  0  0
 44 47  1  0  0  0  0
 47 48  1  0  0  0  0
 47 49  1  0  0  0  0
 47 50  1  0  0  0  0
 50 51  1  0  0  0  0
 50 52  1  0  0  0  0
 50 53  1  0  0  0  0
 53 54  1  0  0  0  0
 53 55  1  0  0  0  0
 53 56  1  0  0  0  0
 56 57  1  0  0  0  0
 56 58  1  0  0  0  0
 56 59  1  0  0  0  0
 59 60  1  0  0  0  0
 59 61  1  0  0  0  0
 59 62  1  0  0  0  0
 62 63  1  0  0  0  0
 62 64  1  0  0  0  0
 62 65  1  0  0  0  0
 65 66  1  0  0  0  0
 65 67  1  0  0  0  0
 65 68  1  0  0  0  0
 68 69  1  0  0  0  0
 68 70  1  0  0  0  0
 68 71  1  0  0  0  0
 71 72  1  0  0  0  0
 71 73  1  0  0  0  0
 71 74  1  0  0  0  0
M  END
> <ChemID>
101765

> <source_casrn>
646-31-1

> <CAS>
646-31-1

> <SMILES>
CCCCCCCCCCCCCCCCCCCCCCCC

> <NAME>
TETRACOSANE

> <preferred_name>
Tetracosane

> <iupac>
Tetracosane

> <MPID>
26354

> <dsstox_substance_id>
DTXSID8060955

> <Canonical_QSARr>
CCCCCCCCCCCCCCCCCCCCCCCC

> <InChI_Code_QSARr>
InChI=1S/C24H50/c1-3-5-7-9-11-13-15-17-19-21-23-24-22-20-18-16-14-12-10-8-6-4-2/h3-24H2,1-2H3

> <InChI Key_QSARr>
POOSGDOYLQNASK-UHFFFAOYSA-N

> <Salt_Solvent>
?

> <LogVP>
-5.3905

$$$$
101769
  -INDIGO-08031723152D

 29 29  0  0  0  0  0  0  0  0999 V2000
   -2.7713    4.8001    0.0000 C   0  0  0  0  0  0  0  0  0  0  0  0
   -2.7713    6.4000    0.0000 H   0  0  0  0  0  0  0  0  0  0  0  0
   -1.3855    5.6000    0.0000 H   0  0  0  0  0  0  0  0  0  0  0  0
   -1.3855    4.0000    0.0000 H   0  0  0  0  0  0  0  0  0  0  0  0
   -4.1568    4.0000    0.0000 O   0  0  0  0  0  0  0  0  0  0  0  0
   -4.1568    2.4000    0.0000 C   0  0  0  0  0  0  0  0  0  0  0  0
   -5.5426    1.6000    0.0000 N   0  0  0  0  0  0  0  0  0  0  0  0
   -5.5426   -0.0000    0.0000 C   0  0  0  0  0  0  0  0  0  0  0  0
   -6.9281   -0.8001    0.0000 N   0  0  0  0  0  0  0  0  0  0  0  0
   -6.9281   -2.4000    0.0000 H   0  0  0  0  0  0  0  0  0  0  0  0
   -8.3138   -0.0000    0.0000 C   0  0  0  0  0  0  0  0  0  0  0  0
   -8.9262    1.4783    0.0000 H   0  0  0  0  0  0  0  0  0  0  0  0
   -7.7015    1.4783    0.0000 H   0  0  0  0  0  0  0  0  0  0  0  0
   -9.6994   -0.8001    0.0000 C   0  0  0  0  0  0  0  0  0  0  0  0
  -11.0851   -1.6000    0.0000 H   0  0  0  0  0  0  0  0  0  0  0  0
  -11.0851   -0.0000    0.0000 H   0  0  0  0  0  0  0  0  0  0  0  0
   -9.6994   -2.4000    0.0000 H   0  0  0  0  0  0  0  0  0  0  0  0
   -4.1568   -0.8001    0.0000 N   0  0  0  0  0  0  0  0  0  0  0  0
   -2.7713   -0.0000    0.0000 C   0  0  0  0  0  0  0  0  0  0  0  0
   -1.3855   -0.8001    0.0000 N   0  0  0  0  0  0  0  0  0  0  0  0
   -1.3855   -2.4000    0.0000 H   0  0  0  0  0  0  0  0  0  0  0  0
    0.0000   -0.0000    0.0000 C   0  0  0  0  0  0  0  0  0  0  0  0
   -0.6123    1.4783    0.0000 H   0  0  0  0  0  0  0  0  0  0  0  0
    0.6123    1.4783    0.0000 H   0  0  0  0  0  0  0  0  0  0  0  0
    1.3857   -0.8001    0.0000 C   0  0  0  0  0  0  0  0  0  0  0  0
    2.7713   -1.6000    0.0000 H   0  0  0  0  0  0  0  0  0  0  0  0
    2.7713   -0.0000    0.0000 H   0  0  0  0  0  0  0  0  0  0  0  0
    1.3857   -2.4000    0.0000 H   0  0  0  0  0  0  0  0  0  0  0  0
   -2.7713    1.6000    0.0000 N   0  0  0  0  0  0  0  0  0  0  0  0
  1  2  1  0  0  0  0
  1  3  1  0  0  0  0
  1  4  1  0  0  0  0
  1  5  1  0  0  0  0
  5  6  1  0  0  0  0
  6  7  1  0  0  0  0
  7  8  2  0  0  0  0
  8  9  1  0  0  0  0
  9 10  1  0  0  0  0
  9 11  1  0  0  0  0
 11 12  1  0  0  0  0
 11 13  1  0  0  0  0
 11 14  1  0  0  0  0
 14 15  1  0  0  0  0
 14 16  1  0  0  0  0
 14 17  1  0  0  0  0
  8 18  1  0  0  0  0
 18 19  2  0  0  0  0
 19 20  1  0  0  0  0
 20 21  1  0  0  0  0
 20 22  1  0  0  0  0
 22 23  1  0  0  0  0
 22 24  1  0  0  0  0
 22 25  1  0  0  0  0
 25 26  1  0  0  0  0
 25 27  1  0  0  0  0
 25 28  1  0  0  0  0
 19 29  1  0  0  0  0
 29  6  2  0  0  0  0
M  END
> <ChemID>
101769

> <source_casrn>
673-04-1

> <CAS>
673-04-1

> <SMILES>
COc1[n]c(NCC)[n]c(NCC)[n]1

> <NAME>
SIMETONE

> <preferred_name>
Simetone

> <iupac>
N,N'-diethyl-6-methoxy-1,3,5-triazine-2,4-diamine

> <MPID>
26358

> <dsstox_substance_id>
DTXSID9042388

> <Canonical_QSARr>
COc1[n]c(NCC)[n]c(NCC)[n]1

> <InChI_Code_QSARr>
InChI=1S/C8H15N5O/c1-4-9-6-11-7(10-5-2)13-8(12-6)14-3/h4-5H2,1-3H3,(H2,9,10,11,12,13)

> <InChI Key_QSARr>
HKAMKLBXTLTVCN-UHFFFAOYSA-N

> <Salt_Solvent>
?

> <LogVP>
-5.6198

$$$$
101774
  -INDIGO-08031723152D

 11 10  0  0  0  0  0  0  0  0999 V2000
    1.3856    0.8000    0.0000 C   0  0  0  0  0  0  0  0  0  0  0  0
    2.7713    1.6000    0.0000 H   0  0  0  0  0  0  0  0  0  0  0  0
    2.7713    0.0000    0.0000 F   0  0  0  0  0  0  0  0  0  0  0  0
    1.3856    2.4000    0.0000 F   0  0  0  0  0  0  0  0  0  0  0  0
    0.0000    0.0000    0.0000 C   0  0  0  0  0  0  0  0  0  0  0  0
    0.6123   -1.4782    0.0000 F   0  0  0  0  0  0  0  0  0  0  0  0
   -0.6123   -1.4782    0.0000 F   0  0  0  0  0  0  0  0  0  0  0  0
   -1.3856    0.8000    0.0000 C   0  0  0  0  0  0  0  0  0  0  0  0
   -2.7713    1.6000    0.0000 H   0  0  0  0  0  0  0  0  0  0  0  0
   -2.7713    0.0000    0.0000 H   0  0  0  0  0  0  0  0  0  0  0  0
   -1.3856    2.4000    0.0000 F   0  0  0  0  0  0  0  0  0  0  0  0
  1  2  1  0  0  0  0
  1  3  1  0  0  0  0
  1  4  1  0  0  0  0
  1  5  1  0  0  0  0
  5  6  1  0  0  0  0
  5  7  1  0  0  0  0
  5  8  1  0  0  0  0
  8  9  1  0  0  0  0
  8 10  1  0  0  0  0
  8 11  1  0  0  0  0
M  END
> <ChemID>
101774

> <source_casrn>
679-86-7

> <CAS>
679-86-7

> <SMILES>
FCC(F)(F)C(F)F

> <NAME>
HFC-245 (pentafluoropropane)

> <preferred_name>
HFC-245ca

> <iupac>
1,1,2,2,3-Pentafluoropropane

> <MPID>
26362

> <dsstox_substance_id>
DTXSID3073925

> <Canonical_QSARr>
FCC(F)(F)C(F)F

> <InChI_Code_QSARr>
InChI=1S/C3H3F5/c4-1-3(7,8)2(5)6/h2H,1H2

> <InChI Key_QSARr>
AWTOFSDLNREIFS-UHFFFAOYSA-N

> <Salt_Solvent>
?

> <LogVP>
2.8779

$$$$
101778
  -INDIGO-08031723152D

 43 42  0  0  0  0  0  0  0  0999 V2000
   -0.0001   -2.7712    0.0000 C   0  0  0  0  0  0  0  0  0  0  0  0
    0.8001   -4.1569    0.0000 H   0  0  0  0  0  0  0  0  0  0  0  0
   -0.8000   -4.1569    0.0000 H   0  0  0  0  0  0  0  0  0  0  0  0
    1.6001   -2.7712    0.0000 H   0  0  0  0  0  0  0  0  0  0  0  0
   -0.8000   -1.3856    0.0000 C   0  0  0  0  0  0  0  0  0  0  0  0
   -2.2782   -0.7733    0.0000 H   0  0  0  0  0  0  0  0  0  0  0  0
   -2.2782   -1.9980    0.0000 H   0  0  0  0  0  0  0  0  0  0  0  0
   -0.0001    0.0001    0.0000 C   0  0  0  0  0  0  0  0  0  0  0  0
    1.4783   -0.6122    0.0000 H   0  0  0  0  0  0  0  0  0  0  0  0
    1.4783    0.6122    0.0000 H   0  0  0  0  0  0  0  0  0  0  0  0
   -0.8000    1.3856    0.0000 C   0  0  0  0  0  0  0  0  0  0  0  0
   -2.2782    1.9980    0.0000 H   0  0  0  0  0  0  0  0  0  0  0  0
   -2.2782    0.7733    0.0000 H   0  0  0  0  0  0  0  0  0  0  0  0
   -0.0001    2.7714    0.0000 O   0  0  0  0  0  0  0  0  0  0  0  0
   -0.8000    4.1569    0.0000 B   0  0  0  0  0  0  0  0  0  0  0  0
   -0.0001    5.5427    0.0000 O   0  0  0  0  0  0  0  0  0  0  0  0
    1.6001    5.5427    0.0000 C   0  0  0  0  0  0  0  0  0  0  0  0
    2.8695    4.5686    0.0000 H   0  0  0  0  0  0  0  0  0  0  0  0
    1.8088    3.9563    0.0000 H   0  0  0  0  0  0  0  0  0  0  0  0
    2.4000    6.9282    0.0000 C   0  0  0  0  0  0  0  0  0  0  0  0
    1.1306    7.9023    0.0000 H   0  0  0  0  0  0  0  0  0  0  0  0
    2.1913    8.5146    0.0000 H   0  0  0  0  0  0  0  0  0  0  0  0
    3.9999    6.9282    0.0000 C   0  0  0  0  0  0  0  0  0  0  0  0
    5.2693    5.9541    0.0000 H   0  0  0  0  0  0  0  0  0  0  0  0
    4.2089    5.3418    0.0000 H   0  0  0  0  0  0  0  0  0  0  0  0
    4.8001    8.3137    0.0000 C   0  0  0  0  0  0  0  0  0  0  0  0
    5.6001    9.6995    0.0000 H   0  0  0  0  0  0  0  0  0  0  0  0
    6.4000    8.3137    0.0000 H   0  0  0  0  0  0  0  0  0  0  0  0
    3.9999    9.6995    0.0000 H   0  0  0  0  0  0  0  0  0  0  0  0
   -2.3999    4.1569    0.0000 O   0  0  0  0  0  0  0  0  0  0  0  0
   -3.2001    5.5427    0.0000 C   0  0  0  0  0  0  0  0  0  0  0  0
   -1.9307    6.5165    0.0000 H   0  0  0  0  0  0  0  0  0  0  0  0
   -2.9911    7.1289    0.0000 H   0  0  0  0  0  0  0  0  0  0  0  0
   -4.8000    5.5427    0.0000 C   0  0  0  0  0  0  0  0  0  0  0  0
   -6.0694    4.5686    0.0000 H   0  0  0  0  0  0  0  0  0  0  0  0
   -5.0088    3.9563    0.0000 H   0  0  0  0  0  0  0  0  0  0  0  0
   -5.6000    6.9282    0.0000 C   0  0  0  0  0  0  0  0  0  0  0  0
   -4.3306    7.9023    0.0000 H   0  0  0  0  0  0  0  0  0  0  0  0
   -5.3912    8.5146    0.0000 H   0  0  0  0  0  0  0  0  0  0  0  0
   -7.2001    6.9282    0.0000 C   0  0  0  0  0  0  0  0  0  0  0  0
   -8.8000    6.9282    0.0000 H   0  0  0  0  0  0  0  0  0  0  0  0
   -8.0000    8.3139    0.0000 H   0  0  0  0  0  0  0  0  0  0  0  0
   -8.0000    5.5427    0.0000 H   0  0  0  0  0  0  0  0  0  0  0  0
  1  2  1  0  0  0  0
  1  3  1  0  0  0  0
  1  4  1  0  0  0  0
  1  5  1  0  0  0  0
  5  6  1  0  0  0  0
  5  7  1  0  0  0  0
  5  8  1  0  0  0  0
  8  9  1  0  0  0  0
  8 10  1  0  0  0  0
  8 11  1  0  0  0  0
 11 12  1  0  0  0  0
 11 13  1  0  0  0  0
 11 14  1  0  0  0  0
 14 15  1  0  0  0  0
 15 16  1  0  0  0  0
 16 17  1  0  0  0  0
 17 18  1  0  0  0  0
 17 19  1  0  0  0  0
 17 20  1  0  0  0  0
 20 21  1  0  0  0  0
 20 22  1  0  0  0  0
 20 23  1  0  0  0  0
 23 24  1  0  0  0  0
 23 25  1  0  0  0  0
 23 26  1  0  0  0  0
 26 27  1  0  0  0  0
 26 28  1  0  0  0  0
 26 29  1  0  0  0  0
 15 30  1  0  0  0  0
 30 31  1  0  0  0  0
 31 32  1  0  0  0  0
 31 33  1  0  0  0  0
 31 34  1  0  0  0  0
 34 35  1  0  0  0  0
 34 36  1  0  0  0  0
 34 37  1  0  0  0  0
 37 38  1  0  0  0  0
 37 39  1  0  0  0  0
 37 40  1  0  0  0  0
 40 41  1  0  0  0  0
 40 42  1  0  0  0  0
 40 43  1  0  0  0  0
M  END
> <ChemID>
101778

> <source_casrn>
688-74-4

> <CAS>
688-74-4

> <SMILES>
CCCCOB(OCCCC)OCCCC

> <NAME>
BUTYL BORATE

> <preferred_name>
Tributyl borate

> <iupac>
tributyl borate

> <MPID>
26366

> <dsstox_substance_id>
DTXSID9026184

> <Canonical_QSARr>
CCCCOB(OCCCC)OCCCC

> <InChI_Code_QSARr>
InChI=1S/C12H27BO3/c1-4-7-10-14-13(15-11-8-5-2)16-12-9-6-3/h4-12H2,1-3H3

> <InChI Key_QSARr>
LGQXXHMEBUOXRP-UHFFFAOYSA-N

> <Salt_Solvent>
?

> <LogVP>
-0.2788

$$$$
101784
  -INDIGO-08031723152D

 16 15  0  0  0  0  0  0  0  0999 V2000
    4.1569   -0.8000    0.0000 C   0  0  0  0  0  0  0  0  0  0  0  0
    5.5426   -1.6000    0.0000 H   0  0  0  0  0  0  0  0  0  0  0  0
    2.7713   -0.0000    0.0000 C   0  0  0  0  0  0  0  0  0  0  0  0
    1.3857    0.8000    0.0000 C   0  0  0  0  0  0  0  0  0  0  0  0
    1.9980    2.2782    0.0000 H   0  0  0  0  0  0  0  0  0  0  0  0
    0.7734    2.2782    0.0000 H   0  0  0  0  0  0  0  0  0  0  0  0
   -0.0001   -0.0000    0.0000 C   0  0  0  0  0  0  0  0  0  0  0  0
   -0.6124   -1.4782    0.0000 H   0  0  0  0  0  0  0  0  0  0  0  0
    0.6122   -1.4782    0.0000 H   0  0  0  0  0  0  0  0  0  0  0  0
   -1.3857    0.8000    0.0000 C   0  0  0  0  0  0  0  0  0  0  0  0
   -0.7734    2.2782    0.0000 H   0  0  0  0  0  0  0  0  0  0  0  0
   -1.9980    2.2782    0.0000 H   0  0  0  0  0  0  0  0  0  0  0  0
   -2.7713   -0.0000    0.0000 C   0  0  0  0  0  0  0  0  0  0  0  0
   -4.1569   -0.8000    0.0000 H   0  0  0  0  0  0  0  0  0  0  0  0
   -4.1569    0.8000    0.0000 H   0  0  0  0  0  0  0  0  0  0  0  0
   -2.7713   -1.6000    0.0000 H   0  0  0  0  0  0  0  0  0  0  0  0
  1  2  1  0  0  0  0
  1  3  3  0  0  0  0
  3  4  1  0  0  0  0
  4  5  1  0  0  0  0
  4  6  1  0  0  0  0
  4  7  1  0  0  0  0
  7  8  1  0  0  0  0
  7  9  1  0  0  0  0
  7 10  1  0  0  0  0
 10 11  1  0  0  0  0
 10 12  1  0  0  0  0
 10 13  1  0  0  0  0
 13 14  1  0  0  0  0
 13 15  1  0  0  0  0
 13 16  1  0  0  0  0
M  END
> <ChemID>
101784

> <source_casrn>
693-02-7

> <CAS>
NOCAS_870753

> <SMILES>
CCCCC#C

> <NAME>
1-HEXYNE

> <preferred_name>


> <iupac>


> <MPID>
26370

> <dsstox_substance_id>
DTXSID30870753

> <Canonical_QSARr>
CCCCC#C

> <InChI_Code_QSARr>
InChI=1S/C6H10/c1-3-5-6-4-2/h1H,4-6H2,2H3

> <InChI Key_QSARr>
CGHIBGNXEGJPQZ-UHFFFAOYSA-N

> <Salt_Solvent>
?

> <LogVP>
2.1237

$$$$
101788
  -INDIGO-08031723152D

 29 28  0  0  0  0  0  0  0  0999 V2000
    5.5427   -0.0000    0.0000 C   0  0  0  0  0  0  0  0  0  0  0  0
    6.9282   -0.8000    0.0000 H   0  0  0  0  0  0  0  0  0  0  0  0
    6.9282    0.8000    0.0000 H   0  0  0  0  0  0  0  0  0  0  0  0
    5.5427   -1.6000    0.0000 H   0  0  0  0  0  0  0  0  0  0  0  0
    4.1569    0.8000    0.0000 C   0  0  0  0  0  0  0  0  0  0  0  0
    3.5446    2.2782    0.0000 H   0  0  0  0  0  0  0  0  0  0  0  0
    4.7692    2.2782    0.0000 H   0  0  0  0  0  0  0  0  0  0  0  0
    2.7714   -0.0000    0.0000 C   0  0  0  0  0  0  0  0  0  0  0  0
    3.3835   -1.4782    0.0000 H   0  0  0  0  0  0  0  0  0  0  0  0
    2.1591   -1.4782    0.0000 H   0  0  0  0  0  0  0  0  0  0  0  0
    1.3856    0.8000    0.0000 C   0  0  0  0  0  0  0  0  0  0  0  0
    0.7733    2.2782    0.0000 H   0  0  0  0  0  0  0  0  0  0  0  0
    1.9980    2.2782    0.0000 H   0  0  0  0  0  0  0  0  0  0  0  0
    0.0001   -0.0000    0.0000 C   0  0  0  0  0  0  0  0  0  0  0  0
    0.6122   -1.4782    0.0000 H   0  0  0  0  0  0  0  0  0  0  0  0
   -0.6122   -1.4782    0.0000 H   0  0  0  0  0  0  0  0  0  0  0  0
   -1.3856    0.8000    0.0000 C   0  0  0  0  0  0  0  0  0  0  0  0
   -1.9980    2.2782    0.0000 H   0  0  0  0  0  0  0  0  0  0  0  0
   -0.7733    2.2782    0.0000 H   0  0  0  0  0  0  0  0  0  0  0  0
   -2.7712   -0.0000    0.0000 C   0  0  0  0  0  0  0  0  0  0  0  0
   -2.1591   -1.4782    0.0000 H   0  0  0  0  0  0  0  0  0  0  0  0
   -3.3835   -1.4782    0.0000 H   0  0  0  0  0  0  0  0  0  0  0  0
   -4.1569    0.8000    0.0000 C   0  0  0  0  0  0  0  0  0  0  0  0
   -4.7692    2.2782    0.0000 H   0  0  0  0  0  0  0  0  0  0  0  0
   -3.5446    2.2782    0.0000 H   0  0  0  0  0  0  0  0  0  0  0  0
   -5.5425   -0.0000    0.0000 C   0  0  0  0  0  0  0  0  0  0  0  0
   -6.9282   -0.8000    0.0000 H   0  0  0  0  0  0  0  0  0  0  0  0
   -6.9282    0.8000    0.0000 H   0  0  0  0  0  0  0  0  0  0  0  0
   -5.5425   -1.6000    0.0000 Br  0  0  0  0  0  0  0  0  0  0  0  0
  1  2  1  0  0  0  0
  1  3  1  0  0  0  0
  1  4  1  0  0  0  0
  1  5  1  0  0  0  0
  5  6  1  0  0  0  0
  5  7  1  0  0  0  0
  5  8  1  0  0  0  0
  8  9  1  0  0  0  0
  8 10  1  0  0  0  0
  8 11  1  0  0  0  0
 11 12  1  0  0  0  0
 11 13  1  0  0  0  0
 11 14  1  0  0  0  0
 14 15  1  0  0  0  0
 14 16  1  0  0  0  0
 14 17  1  0  0  0  0
 17 18  1  0  0  0  0
 17 19  1  0  0  0  0
 17 20  1  0  0  0  0
 20 21  1  0  0  0  0
 20 22  1  0  0  0  0
 20 23  1  0  0  0  0
 23 24  1  0  0  0  0
 23 25  1  0  0  0  0
 23 26  1  0  0  0  0
 26 27  1  0  0  0  0
 26 28  1  0  0  0  0
 26 29  1  0  0  0  0
M  END
> <ChemID>
101788

> <source_casrn>
693-58-3

> <CAS>
693-58-3

> <SMILES>
CCCCCCCCCBr

> <NAME>
1-BROMO-N-NONANE

> <preferred_name>
Nonylbromide

> <iupac>
1-bromononane

> <MPID>
26374

> <dsstox_substance_id>
DTXSID7049348

> <Canonical_QSARr>
CCCCCCCCCBr

> <InChI_Code_QSARr>
InChI=1S/C9H19Br/c1-2-3-4-5-6-7-8-9-10/h2-9H2,1H3

> <InChI Key_QSARr>
AYMUQTNXKPEMLM-UHFFFAOYSA-N

> <Salt_Solvent>
?

> <LogVP>
-0.9212

$$$$
101793
  -INDIGO-08031723152D

 27 27  0  0  0  0  0  0  0  0999 V2000
    0.0001    0.0000    0.0000 C   0  0  0  0  0  0  0  0  0  0  0  0
    0.5473    1.5035    0.0000 H   0  0  0  0  0  0  0  0  0  0  0  0
    0.0001   -1.6000    0.0000 C   0  0  0  0  0  0  0  0  0  0  0  0
    1.0285   -1.7813    0.0000 H   0  0  0  0  0  0  0  0  0  0  0  0
    0.5473   -3.1035    0.0000 H   0  0  0  0  0  0  0  0  0  0  0  0
   -1.3856   -2.4000    0.0000 C   0  0  0  0  0  0  0  0  0  0  0  0
   -0.3572   -3.6257    0.0000 H   0  0  0  0  0  0  0  0  0  0  0  0
   -2.4141   -3.6257    0.0000 H   0  0  0  0  0  0  0  0  0  0  0  0
   -2.7712   -1.6000    0.0000 C   0  0  0  0  0  0  0  0  0  0  0  0
   -3.3185   -3.1035    0.0000 H   0  0  0  0  0  0  0  0  0  0  0  0
   -4.3470   -1.3222    0.0000 H   0  0  0  0  0  0  0  0  0  0  0  0
   -2.7712    0.0000    0.0000 C   0  0  0  0  0  0  0  0  0  0  0  0
   -4.3470   -0.2778    0.0000 H   0  0  0  0  0  0  0  0  0  0  0  0
   -3.3185    1.5035    0.0000 H   0  0  0  0  0  0  0  0  0  0  0  0
   -1.3856    0.8000    0.0000 C   0  0  0  0  0  0  0  0  0  0  0  0
   -2.4141    2.0257    0.0000 H   0  0  0  0  0  0  0  0  0  0  0  0
   -0.3572    2.0257    0.0000 H   0  0  0  0  0  0  0  0  0  0  0  0
    1.5757   -0.2778    0.0000 C   0  0  0  0  0  0  0  0  0  0  0  0
    1.5757   -1.3222    0.0000 H   0  0  0  0  0  0  0  0  0  0  0  0
    2.9613   -1.0778    0.0000 C   0  0  0  0  0  0  0  0  0  0  0  0
    4.3470   -1.8778    0.0000 H   0  0  0  0  0  0  0  0  0  0  0  0
    4.3470   -0.2778    0.0000 H   0  0  0  0  0  0  0  0  0  0  0  0
    2.9613   -2.6779    0.0000 H   0  0  0  0  0  0  0  0  0  0  0  0
    2.3756    1.1078    0.0000 C   0  0  0  0  0  0  0  0  0  0  0  0
    3.1757    2.4934    0.0000 H   0  0  0  0  0  0  0  0  0  0  0  0
    1.5757    2.4934    0.0000 H   0  0  0  0  0  0  0  0  0  0  0  0
    3.9757    1.1078    0.0000 H   0  0  0  0  0  0  0  0  0  0  0  0
  1  2  1  0  0  0  0
  1  3  1  0  0  0  0
  3  4  1  0  0  0  0
  3  5  1  0  0  0  0
  3  6  1  0  0  0  0
  6  7  1  0  0  0  0
  6  8  1  0  0  0  0
  6  9  1  0  0  0  0
  9 10  1  0  0  0  0
  9 11  1  0  0  0  0
  9 12  1  0  0  0  0
 12 13  1  0  0  0  0
 12 14  1  0  0  0  0
 12 15  1  0  0  0  0
 15  1  1  0  0  0  0
 15 16  1  0  0  0  0
 15 17  1  0  0  0  0
  1 18  1  0  0  0  0
 18 19  1  0  0  0  0
 18 20  1  0  0  0  0
 20 21  1  0  0  0  0
 20 22  1  0  0  0  0
 20 23  1  0  0  0  0
 18 24  1  0  0  0  0
 24 25  1  0  0  0  0
 24 26  1  0  0  0  0
 24 27  1  0  0  0  0
M  END
> <ChemID>
101793

> <source_casrn>
696-29-7

> <CAS>
696-29-7

> <SMILES>
CC(C)C1CCCCC1

> <NAME>
ISOPROPYLCYCLOHEXANE

> <preferred_name>
Cyclohexane, (1-methylethyl)-

> <iupac>
propan-2-ylcyclohexane

> <MPID>
26378

> <dsstox_substance_id>
DTXSID2061012

> <Canonical_QSARr>
CC(C)C1CCCCC1

> <InChI_Code_QSARr>
InChI=1S/C9H18/c1-8(2)9-6-4-3-5-7-9/h8-9H,3-7H2,1-2H3

> <InChI Key_QSARr>
GWESVXSMPKAFAS-UHFFFAOYSA-N

> <Salt_Solvent>
?

> <LogVP>
0.681

$$$$
101797
  -INDIGO-08031723152D

 18 18  0  0  0  0  0  0  0  0999 V2000
   -4.1569    0.8000    0.0000 O   0  0  0  0  0  0  0  0  0  0  0  0
   -4.1569    2.4000    0.0000 H   0  0  0  0  0  0  0  0  0  0  0  0
   -2.7713   -0.0000    0.0000 C   0  0  0  0  0  0  0  0  0  0  0  0
   -2.7713   -1.6000    0.0000 C   0  0  0  0  0  0  0  0  0  0  0  0
   -4.1570   -2.4000    0.0000 N   0  0  0  0  0  0  0  0  0  0  0  0
   -4.1569   -4.0000    0.0000 O   0  0  0  0  0  0  0  0  0  0  0  0
   -5.5426   -1.6000    0.0000 O   0  0  0  0  0  0  0  0  0  0  0  0
   -1.3856   -2.4000    0.0000 C   0  0  0  0  0  0  0  0  0  0  0  0
   -1.3857   -4.0000    0.0000 H   0  0  0  0  0  0  0  0  0  0  0  0
    0.0000   -1.6000    0.0000 C   0  0  0  0  0  0  0  0  0  0  0  0
    1.3857   -2.4000    0.0000 H   0  0  0  0  0  0  0  0  0  0  0  0
    0.0000   -0.0000    0.0000 C   0  0  0  0  0  0  0  0  0  0  0  0
    1.3857    0.8000    0.0000 C   0  0  0  0  0  0  0  0  0  0  0  0
    2.7713    1.6000    0.0000 H   0  0  0  0  0  0  0  0  0  0  0  0
    2.7713   -0.0000    0.0000 H   0  0  0  0  0  0  0  0  0  0  0  0
    1.3857    2.4000    0.0000 H   0  0  0  0  0  0  0  0  0  0  0  0
   -1.3856    0.8000    0.0000 C   0  0  0  0  0  0  0  0  0  0  0  0
   -1.3857    2.4000    0.0000 H   0  0  0  0  0  0  0  0  0  0  0  0
  1  2  1  0  0  0  0
  1  3  1  0  0  0  0
  3  4  1  0  0  0  0
  4  5  1  0  0  0  0
  5  6  1  0  0  0  0
  5  7  2  0  0  0  0
  4  8  2  0  0  0  0
  8  9  1  0  0  0  0
  8 10  1  0  0  0  0
 10 11  1  0  0  0  0
 10 12  2  0  0  0  0
 12 13  1  0  0  0  0
 13 14  1  0  0  0  0
 13 15  1  0  0  0  0
 13 16  1  0  0  0  0
 12 17  1  0  0  0  0
 17  3  2  0  0  0  0
 17 18  1  0  0  0  0
M  CHG  2   5   1   6  -1
M  END
> <ChemID>
101797

> <source_casrn>
700-38-9

> <CAS>
700-38-9

> <SMILES>
Cc1ccc(c(O)c1)[N+]([O-])=O

> <NAME>
5-METHYL-2-NITROPHENOL

> <preferred_name>
6-Nitro-m-cresol

> <iupac>
5-METHYL-2-NITROPHENOL

> <MPID>
26382

> <dsstox_substance_id>
DTXSID00220261

> <Canonical_QSARr>
Cc1ccc(c(O)c1)[N+]([O-])=O

> <InChI_Code_QSARr>
InChI=1S/C7H7NO3/c1-5-2-3-6(8(10)11)7(9)4-5/h2-4,9H,1H3

> <InChI Key_QSARr>
NQXUSSVLFOBRSE-UHFFFAOYSA-N

> <Salt_Solvent>
?

> <LogVP>
-1.699

$$$$
101801
  -INDIGO-08031723152D

 31 32  0  0  0  0  0  0  0  0999 V2000
    0.0001   -0.0001    0.0000 N   0  0  0  0  0  0  0  0  0  0  0  0
    0.9405   -1.2945    0.0000 C   0  0  0  0  0  0  0  0  0  0  0  0
    0.4460   -2.8161    0.0000 O   0  0  0  0  0  0  0  0  0  0  0  0
    2.4621   -0.7999    0.0000 C   0  0  0  0  0  0  0  0  0  0  0  0
    2.4621    0.8000    0.0000 C   0  0  0  0  0  0  0  0  0  0  0  0
    3.8478    1.6000    0.0000 C   0  0  0  0  0  0  0  0  0  0  0  0
    3.8478    3.2000    0.0000 H   0  0  0  0  0  0  0  0  0  0  0  0
    5.2333    0.8000    0.0000 C   0  0  0  0  0  0  0  0  0  0  0  0
    6.6191    1.6000    0.0000 H   0  0  0  0  0  0  0  0  0  0  0  0
    5.2333   -0.7999    0.0000 C   0  0  0  0  0  0  0  0  0  0  0  0
    6.6191   -1.6000    0.0000 H   0  0  0  0  0  0  0  0  0  0  0  0
    3.8478   -1.6000    0.0000 C   0  0  0  0  0  0  0  0  0  0  0  0
    3.8478   -3.2000    0.0000 H   0  0  0  0  0  0  0  0  0  0  0  0
    0.9405    1.2945    0.0000 C   0  0  0  0  0  0  0  0  0  0  0  0
    0.4460    2.8161    0.0000 O   0  0  0  0  0  0  0  0  0  0  0  0
   -1.6000   -0.0001    0.0000 C   0  0  0  0  0  0  0  0  0  0  0  0
   -1.8088   -1.5864    0.0000 H   0  0  0  0  0  0  0  0  0  0  0  0
   -2.8693   -0.9740    0.0000 H   0  0  0  0  0  0  0  0  0  0  0  0
   -2.4000    1.3856    0.0000 S   0  0  0  0  0  0  0  0  0  0  0  0
   -4.0001    1.3856    0.0000 P   0  0  0  0  0  0  0  0  0  0  0  0
   -4.8000   -0.0001    0.0000 S   0  0  0  0  0  0  0  0  0  0  0  0
   -5.6000    1.3856    0.0000 O   0  0  0  0  0  0  0  0  0  0  0  0
   -6.3999   -0.0001    0.0000 C   0  0  0  0  0  0  0  0  0  0  0  0
   -8.0000   -0.0001    0.0000 H   0  0  0  0  0  0  0  0  0  0  0  0
   -7.2001   -1.3856    0.0000 H   0  0  0  0  0  0  0  0  0  0  0  0
   -5.6000   -1.3856    0.0000 H   0  0  0  0  0  0  0  0  0  0  0  0
   -4.8000    2.7713    0.0000 O   0  0  0  0  0  0  0  0  0  0  0  0
   -4.0001    4.1569    0.0000 C   0  0  0  0  0  0  0  0  0  0  0  0
   -4.8000    5.5426    0.0000 H   0  0  0  0  0  0  0  0  0  0  0  0
   -3.1999    5.5426    0.0000 H   0  0  0  0  0  0  0  0  0  0  0  0
   -2.4000    4.1569    0.0000 H   0  0  0  0  0  0  0  0  0  0  0  0
  1  2  1  0  0  0  0
  2  3  2  0  0  0  0
  2  4  1  0  0  0  0
  4  5  1  0  0  0  0
  5  6  2  0  0  0  0
  6  7  1  0  0  0  0
  6  8  1  0  0  0  0
  8  9  1  0  0  0  0
  8 10  2  0  0  0  0
 10 11  1  0  0  0  0
 10 12  1  0  0  0  0
 12  4  2  0  0  0  0
 12 13  1  0  0  0  0
  5 14  1  0  0  0  0
 14  1  1  0  0  0  0
 14 15  2  0  0  0  0
  1 16  1  0  0  0  0
 16 17  1  0  0  0  0
 16 18  1  0  0  0  0
 16 19  1  0  0  0  0
 19 20  1  0  0  0  0
 20 21  2  0  0  0  0
 20 22  1  0  0  0  0
 22 23  1  0  0  0  0
 23 24  1  0  0  0  0
 23 25  1  0  0  0  0
 23 26  1  0  0  0  0
 20 27  1  0  0  0  0
 27 28  1  0  0  0  0
 28 29  1  0  0  0  0
 28 30  1  0  0  0  0
 28 31  1  0  0  0  0
M  END
> <ChemID>
101801

> <source_casrn>
732-11-6

> <CAS>
732-11-6

> <SMILES>
COP(=S)(OC)SCN1C(=O)c2ccccc2C1=O

> <NAME>
PHOSMET

> <preferred_name>
Phosmet

> <iupac>
S-[(1,3-dioxo-1,3-dihydro-2H-isoindol-2-yl)methyl] O,O-dimethyl phosphorodithioate

> <MPID>
26386

> <dsstox_substance_id>
DTXSID5024261

> <Canonical_QSARr>
COP(=S)(OC)SCN1C(=O)c2ccccc2C1=O

> <InChI_Code_QSARr>
InChI=1S/C11H12NO4PS2/c1-15-17(18,16-2)19-7-12-10(13)8-5-3-4-6-9(8)11(12)14/h3-6H,7H2,1-2H3

> <InChI Key_QSARr>
LMNZTLDVJIUSHT-UHFFFAOYSA-N

> <Salt_Solvent>
?

> <LogVP>
-6.3098

$$$$
101805
  -INDIGO-08031723152D

 16 15  0  0  0  0  0  0  0  0999 V2000
    0.8000   -1.3856    0.0000 C   0  0  0  0  0  0  0  0  0  0  0  0
    1.6001   -2.7713    0.0000 H   0  0  0  0  0  0  0  0  0  0  0  0
    0.0001   -2.7713    0.0000 H   0  0  0  0  0  0  0  0  0  0  0  0
    2.4000   -1.3856    0.0000 H   0  0  0  0  0  0  0  0  0  0  0  0
    0.0001    0.0000    0.0000 P   0  0  0  0  0  0  0  0  0  0  0  0
   -1.5999    0.0000    0.0000 O   0  0  0  0  0  0  0  0  0  0  0  0
   -0.8000    1.3856    0.0000 O   0  0  0  0  0  0  0  0  0  0  0  0
   -2.4000    1.3856    0.0000 C   0  0  0  0  0  0  0  0  0  0  0  0
   -4.0000    1.3856    0.0000 H   0  0  0  0  0  0  0  0  0  0  0  0
   -3.2001    2.7713    0.0000 H   0  0  0  0  0  0  0  0  0  0  0  0
   -3.2001    0.0000    0.0000 H   0  0  0  0  0  0  0  0  0  0  0  0
    0.8000    1.3856    0.0000 O   0  0  0  0  0  0  0  0  0  0  0  0
    2.4000    1.3856    0.0000 C   0  0  0  0  0  0  0  0  0  0  0  0
    3.2001    2.7713    0.0000 H   0  0  0  0  0  0  0  0  0  0  0  0
    4.0000    1.3856    0.0000 H   0  0  0  0  0  0  0  0  0  0  0  0
    1.6001    2.7713    0.0000 H   0  0  0  0  0  0  0  0  0  0  0  0
  1  2  1  0  0  0  0
  1  3  1  0  0  0  0
  1  4  1  0  0  0  0
  1  5  1  0  0  0  0
  5  6  2  0  0  0  0
  5  7  1  0  0  0  0
  7  8  1  0  0  0  0
  8  9  1  0  0  0  0
  8 10  1  0  0  0  0
  8 11  1  0  0  0  0
  5 12  1  0  0  0  0
 12 13  1  0  0  0  0
 13 14  1  0  0  0  0
 13 15  1  0  0  0  0
 13 16  1  0  0  0  0
M  END
> <ChemID>
101805

> <source_casrn>
756-79-6

> <CAS>
756-79-6

> <SMILES>
CP(=O)(OC)OC

> <NAME>
Phosphonic acid, methyl-, dimethyl ester

> <preferred_name>
Dimethyl methylphosphonate

> <iupac>
dimethyl methylphosphonate

> <MPID>
26390

> <dsstox_substance_id>
DTXSID0020494

> <Canonical_QSARr>
CP(=O)(OC)OC

> <InChI_Code_QSARr>
InChI=1S/C3H9O3P/c1-5-7(3,4)6-2/h1-3H3

> <InChI Key_QSARr>
VONWDASPFIQPDY-UHFFFAOYSA-N

> <Salt_Solvent>
?

> <LogVP>
-0.0168

$$$$
101809
  -INDIGO-08031723152D

 12 11  0  0  0  0  0  0  0  0999 V2000
    2.7713    0.0000    0.0000 C   0  0  0  0  0  0  0  0  0  0  0  0
    4.1569    0.8000    0.0000 H   0  0  0  0  0  0  0  0  0  0  0  0
    2.7713   -1.6000    0.0000 H   0  0  0  0  0  0  0  0  0  0  0  0
    1.3856    0.8000    0.0000 C   0  0  0  0  0  0  0  0  0  0  0  0
    1.3856    2.4000    0.0000 H   0  0  0  0  0  0  0  0  0  0  0  0
    0.0000    0.0000    0.0000 C   0  0  0  0  0  0  0  0  0  0  0  0
   -0.6123   -1.4782    0.0000 H   0  0  0  0  0  0  0  0  0  0  0  0
    0.6123   -1.4782    0.0000 Cl  0  0  0  0  0  0  0  0  0  0  0  0
   -1.3856    0.8000    0.0000 C   0  0  0  0  0  0  0  0  0  0  0  0
   -2.7713    1.6000    0.0000 H   0  0  0  0  0  0  0  0  0  0  0  0
   -2.7713    0.0000    0.0000 H   0  0  0  0  0  0  0  0  0  0  0  0
   -1.3856    2.4000    0.0000 Cl  0  0  0  0  0  0  0  0  0  0  0  0
  1  2  1  0  0  0  0
  1  3  1  0  0  0  0
  1  4  2  0  0  0  0
  4  5  1  0  0  0  0
  4  6  1  0  0  0  0
  6  7  1  0  0  0  0
  6  8  1  0  0  0  0
  6  9  1  0  0  0  0
  9 10  1  0  0  0  0
  9 11  1  0  0  0  0
  9 12  1  0  0  0  0
M  END
> <ChemID>
101809

> <source_casrn>
760-23-6

> <CAS>
760-23-6

> <SMILES>
C=CC(Cl)CCl

> <NAME>
3,4-DICHLORO-1-BUTENE

> <preferred_name>
3,4-Dichloro-1-butene

> <iupac>
3,4-dichlorobut-1-ene

> <MPID>
26394

> <dsstox_substance_id>
DTXSID8022113

> <Canonical_QSARr>
C=CC(Cl)CCl

> <InChI_Code_QSARr>
InChI=1S/C4H6Cl2/c1-2-4(6)3-5/h2,4H,1,3H2

> <InChI Key_QSARr>
XVEASTGLHPVZNA-UHFFFAOYSA-N

> <Salt_Solvent>
?

> <LogVP>
1.3395

$$$$
101813
  -INDIGO-08031723152D

 25 24  0  0  0  0  0  0  0  0999 V2000
    4.1568    0.8000    0.0000 C   0  0  0  0  0  0  0  0  0  0  0  0
    4.1568    2.4000    0.0000 H   0  0  0  0  0  0  0  0  0  0  0  0
    5.5426    0.0000    0.0000 C   0  0  0  0  0  0  0  0  0  0  0  0
    6.9282    0.8000    0.0000 H   0  0  0  0  0  0  0  0  0  0  0  0
    5.5426   -1.6000    0.0000 H   0  0  0  0  0  0  0  0  0  0  0  0
    2.7712    0.0000    0.0000 O   0  0  0  0  0  0  0  0  0  0  0  0
    1.3856    0.8000    0.0000 C   0  0  0  0  0  0  0  0  0  0  0  0
    0.7734    2.2782    0.0000 H   0  0  0  0  0  0  0  0  0  0  0  0
    1.9979    2.2782    0.0000 H   0  0  0  0  0  0  0  0  0  0  0  0
    0.0001    0.0000    0.0000 C   0  0  0  0  0  0  0  0  0  0  0  0
    0.6123   -1.4782    0.0000 H   0  0  0  0  0  0  0  0  0  0  0  0
   -0.6122   -1.4782    0.0000 H   0  0  0  0  0  0  0  0  0  0  0  0
   -1.3858    0.8000    0.0000 O   0  0  0  0  0  0  0  0  0  0  0  0
   -2.7713    0.0000    0.0000 C   0  0  0  0  0  0  0  0  0  0  0  0
   -2.1591   -1.4782    0.0000 H   0  0  0  0  0  0  0  0  0  0  0  0
   -3.3836   -1.4782    0.0000 H   0  0  0  0  0  0  0  0  0  0  0  0
   -4.1569    0.8000    0.0000 C   0  0  0  0  0  0  0  0  0  0  0  0
   -4.7692    2.2782    0.0000 H   0  0  0  0  0  0  0  0  0  0  0  0
   -3.5447    2.2782    0.0000 H   0  0  0  0  0  0  0  0  0  0  0  0
   -5.5425    0.0000    0.0000 O   0  0  0  0  0  0  0  0  0  0  0  0
   -6.9283    0.8000    0.0000 C   0  0  0  0  0  0  0  0  0  0  0  0
   -6.9283    2.4000    0.0000 H   0  0  0  0  0  0  0  0  0  0  0  0
   -8.3139    0.0000    0.0000 C   0  0  0  0  0  0  0  0  0  0  0  0
   -9.6995    0.8000    0.0000 H   0  0  0  0  0  0  0  0  0  0  0  0
   -8.3139   -1.6000    0.0000 H   0  0  0  0  0  0  0  0  0  0  0  0
  1  2  1  0  0  0  0
  1  3  2  0  0  0  0
  3  4  1  0  0  0  0
  3  5  1  0  0  0  0
  1  6  1  0  0  0  0
  6  7  1  0  0  0  0
  7  8  1  0  0  0  0
  7  9  1  0  0  0  0
  7 10  1  0  0  0  0
 10 11  1  0  0  0  0
 10 12  1  0  0  0  0
 10 13  1  0  0  0  0
 13 14  1  0  0  0  0
 14 15  1  0  0  0  0
 14 16  1  0  0  0  0
 14 17  1  0  0  0  0
 17 18  1  0  0  0  0
 17 19  1  0  0  0  0
 17 20  1  0  0  0  0
 20 21  1  0  0  0  0
 21 22  1  0  0  0  0
 21 23  2  0  0  0  0
 23 24  1  0  0  0  0
 23 25  1  0  0  0  0
M  END
> <ChemID>
101813

> <source_casrn>
764-99-8

> <CAS>
764-99-8

> <SMILES>
C=COCCOCCOC=C

> <NAME>
Ethene, 1,1'-(oxybis(2,1-ethanediyloxy))bis-

> <preferred_name>
{2-[2-(Ethenyloxy)ethoxy]ethoxy}ethene

> <iupac>
{2-[2-(ethenyloxy)ethoxy]ethoxy}ethene

> <MPID>
26398

> <dsstox_substance_id>
DTXSID6044985

> <Canonical_QSARr>
C=COCCOCCOC=C

> <InChI_Code_QSARr>
InChI=1S/C8H14O3/c1-3-9-5-7-11-8-6-10-4-2/h3-4H,1-2,5-8H2

> <InChI Key_QSARr>
SAMJGBVVQUEMGC-UHFFFAOYSA-N

> <Salt_Solvent>
?

> <LogVP>
-1.6383

$$$$
101818
  -INDIGO-08031723152D

 16 16  0  0  0  0  0  0  0  0999 V2000
    2.7713   -0.0000    0.0000 P   0  0  0  0  0  0  0  0  0  0  0  0
    4.1569    0.8000    0.0000 O   0  0  0  0  0  0  0  0  0  0  0  0
    1.3856    0.8000    0.0000 O   0  0  0  0  0  0  0  0  0  0  0  0
    0.0001   -0.0000    0.0000 C   0  0  0  0  0  0  0  0  0  0  0  0
    0.0001   -1.6000    0.0000 C   0  0  0  0  0  0  0  0  0  0  0  0
    1.3856   -2.4000    0.0000 H   0  0  0  0  0  0  0  0  0  0  0  0
   -1.3856   -2.4000    0.0000 C   0  0  0  0  0  0  0  0  0  0  0  0
   -1.3856   -4.0000    0.0000 H   0  0  0  0  0  0  0  0  0  0  0  0
   -2.7712   -1.6000    0.0000 C   0  0  0  0  0  0  0  0  0  0  0  0
   -4.1569   -2.4000    0.0000 H   0  0  0  0  0  0  0  0  0  0  0  0
   -2.7712   -0.0000    0.0000 C   0  0  0  0  0  0  0  0  0  0  0  0
   -4.1569    0.8000    0.0000 H   0  0  0  0  0  0  0  0  0  0  0  0
   -1.3856    0.8000    0.0000 C   0  0  0  0  0  0  0  0  0  0  0  0
   -1.3856    2.4000    0.0000 H   0  0  0  0  0  0  0  0  0  0  0  0
    4.1569   -0.8000    0.0000 Cl  0  0  0  0  0  0  0  0  0  0  0  0
    2.7713    1.6000    0.0000 Cl  0  0  0  0  0  0  0  0  0  0  0  0
  1  2  2  0  0  0  0
  1  3  1  0  0  0  0
  3  4  1  0  0  0  0
  4  5  1  0  0  0  0
  5  6  1  0  0  0  0
  5  7  2  0  0  0  0
  7  8  1  0  0  0  0
  7  9  1  0  0  0  0
  9 10  1  0  0  0  0
  9 11  2  0  0  0  0
 11 12  1  0  0  0  0
 11 13  1  0  0  0  0
 13  4  2  0  0  0  0
 13 14  1  0  0  0  0
  1 15  1  0  0  0  0
  1 16  1  0  0  0  0
M  END
> <ChemID>
101818

> <source_casrn>
770-12-7

> <CAS>
770-12-7

> <SMILES>
O=P(Cl)(Cl)Oc1ccccc1

> <NAME>
PHENYL DICHLOROPHOSPHATE

> <preferred_name>
Phenyl phosphorodichloridate

> <iupac>
phenyl phosphorodichloridate

> <MPID>
26402

> <dsstox_substance_id>
DTXSID6044987

> <Canonical_QSARr>
O=P(Cl)(Cl)Oc1ccccc1

> <InChI_Code_QSARr>
InChI=1S/C6H5Cl2O2P/c7-11(8,9)10-6-4-2-1-3-5-6/h1-5H

> <InChI Key_QSARr>
TXFOLHZMICYNRM-UHFFFAOYSA-N

> <Salt_Solvent>
?

> <LogVP>
-1.2802

$$$$
101822
  -INDIGO-08031723152D

 34 34  0  0  0  0  0  0  0  0999 V2000
   -9.6995    2.4001    0.0000 Cl  0  0  0  0  0  0  0  0  0  0  0  0
   -8.3138    1.6000    0.0000 C   0  0  0  0  0  0  0  0  0  0  0  0
   -6.9283    2.4001    0.0000 C   0  0  0  0  0  0  0  0  0  0  0  0
   -6.9283    4.0000    0.0000 H   0  0  0  0  0  0  0  0  0  0  0  0
   -5.5426    1.6000    0.0000 C   0  0  0  0  0  0  0  0  0  0  0  0
   -4.1569    2.4001    0.0000 H   0  0  0  0  0  0  0  0  0  0  0  0
   -5.5426   -0.0000    0.0000 C   0  0  0  0  0  0  0  0  0  0  0  0
   -4.1569   -0.8000    0.0000 S   0  0  0  0  0  0  0  0  0  0  0  0
   -2.7712   -0.0000    0.0000 C   0  0  0  0  0  0  0  0  0  0  0  0
   -2.1591    1.4782    0.0000 H   0  0  0  0  0  0  0  0  0  0  0  0
   -3.3836    1.4782    0.0000 H   0  0  0  0  0  0  0  0  0  0  0  0
   -1.3857   -0.8000    0.0000 S   0  0  0  0  0  0  0  0  0  0  0  0
   -0.0000   -0.0000    0.0000 P   0  0  0  0  0  0  0  0  0  0  0  0
   -0.0000    1.6000    0.0000 S   0  0  0  0  0  0  0  0  0  0  0  0
    1.3857    0.8000    0.0000 O   0  0  0  0  0  0  0  0  0  0  0  0
    2.7714   -0.0000    0.0000 C   0  0  0  0  0  0  0  0  0  0  0  0
    2.1590   -1.4782    0.0000 H   0  0  0  0  0  0  0  0  0  0  0  0
    3.3835   -1.4782    0.0000 H   0  0  0  0  0  0  0  0  0  0  0  0
    4.1569    0.8000    0.0000 C   0  0  0  0  0  0  0  0  0  0  0  0
    5.5426    1.6000    0.0000 H   0  0  0  0  0  0  0  0  0  0  0  0
    5.5426   -0.0000    0.0000 H   0  0  0  0  0  0  0  0  0  0  0  0
    4.1569    2.4001    0.0000 H   0  0  0  0  0  0  0  0  0  0  0  0
    1.3857   -0.8000    0.0000 O   0  0  0  0  0  0  0  0  0  0  0  0
    1.3857   -2.4000    0.0000 C   0  0  0  0  0  0  0  0  0  0  0  0
   -0.2007   -2.6088    0.0000 H   0  0  0  0  0  0  0  0  0  0  0  0
    0.4116   -3.6694    0.0000 H   0  0  0  0  0  0  0  0  0  0  0  0
    2.7714   -3.2001    0.0000 C   0  0  0  0  0  0  0  0  0  0  0  0
    2.7714   -4.8000    0.0000 H   0  0  0  0  0  0  0  0  0  0  0  0
    4.1569   -4.0000    0.0000 H   0  0  0  0  0  0  0  0  0  0  0  0
    4.1569   -2.4000    0.0000 H   0  0  0  0  0  0  0  0  0  0  0  0
   -6.9283   -0.8000    0.0000 C   0  0  0  0  0  0  0  0  0  0  0  0
   -6.9283   -2.4000    0.0000 H   0  0  0  0  0  0  0  0  0  0  0  0
   -8.3138   -0.0000    0.0000 C   0  0  0  0  0  0  0  0  0  0  0  0
   -9.6995   -0.8000    0.0000 H   0  0  0  0  0  0  0  0  0  0  0  0
  1  2  1  0  0  0  0
  2  3  1  0  0  0  0
  3  4  1  0  0  0  0
  3  5  2  0  0  0  0
  5  6  1  0  0  0  0
  5  7  1  0  0  0  0
  7  8  1  0  0  0  0
  8  9  1  0  0  0  0
  9 10  1  0  0  0  0
  9 11  1  0  0  0  0
  9 12  1  0  0  0  0
 12 13  1  0  0  0  0
 13 14  2  0  0  0  0
 13 15  1  0  0  0  0
 15 16  1  0  0  0  0
 16 17  1  0  0  0  0
 16 18  1  0  0  0  0
 16 19  1  0  0  0  0
 19 20  1  0  0  0  0
 19 21  1  0  0  0  0
 19 22  1  0  0  0  0
 13 23  1  0  0  0  0
 23 24  1  0  0  0  0
 24 25  1  0  0  0  0
 24 26  1  0  0  0  0
 24 27  1  0  0  0  0
 27 28  1  0  0  0  0
 27 29  1  0  0  0  0
 27 30  1  0  0  0  0
  7 31  2  0  0  0  0
 31 32  1  0  0  0  0
 31 33  1  0  0  0  0
 33  2  2  0  0  0  0
 33 34  1  0  0  0  0
M  END
> <ChemID>
101822

> <source_casrn>
786-19-6

> <CAS>
786-19-6

> <SMILES>
CCOP(=S)(OCC)SCSc1ccc(Cl)cc1

> <NAME>
CARBOPHENTHION

> <preferred_name>
Carbophenothion

> <iupac>
S-{[(4-chlorophenyl)sulfanyl]methyl} O,O-diethyl phosphorodithioate

> <MPID>
26406

> <dsstox_substance_id>
DTXSID7022120

> <Canonical_QSARr>
CCOP(=S)(OCC)SCSc1ccc(Cl)cc1

> <InChI_Code_QSARr>
InChI=1S/C11H16ClO2PS3/c1-3-13-15(16,14-4-2)18-9-17-11-7-5-10(12)6-8-11/h5-8H,3-4,9H2,1-2H3

> <InChI Key_QSARr>
VEDTXTNSFWUXGQ-UHFFFAOYSA-N

> <Salt_Solvent>
?

> <LogVP>
-6.5229

$$$$
101826
  -INDIGO-08031723152D

 13 12  0  0  0  0  0  0  0  0999 V2000
    2.7713   -1.6000    0.0000 Br  0  0  0  0  0  0  0  0  0  0  0  0
    2.7713    0.0000    0.0000 C   0  0  0  0  0  0  0  0  0  0  0  0
    4.1569   -0.8000    0.0000 H   0  0  0  0  0  0  0  0  0  0  0  0
    4.1569    0.8000    0.0000 H   0  0  0  0  0  0  0  0  0  0  0  0
    1.3856    0.8000    0.0000 C   0  0  0  0  0  0  0  0  0  0  0  0
    1.3856    2.4000    0.0000 O   0  0  0  0  0  0  0  0  0  0  0  0
    0.0000    0.0000    0.0000 C   0  0  0  0  0  0  0  0  0  0  0  0
    0.6123   -1.4782    0.0000 H   0  0  0  0  0  0  0  0  0  0  0  0
   -0.6123   -1.4782    0.0000 H   0  0  0  0  0  0  0  0  0  0  0  0
   -1.3856    0.8000    0.0000 C   0  0  0  0  0  0  0  0  0  0  0  0
   -2.7713    1.6000    0.0000 H   0  0  0  0  0  0  0  0  0  0  0  0
   -2.7713    0.0000    0.0000 H   0  0  0  0  0  0  0  0  0  0  0  0
   -1.3856    2.4000    0.0000 H   0  0  0  0  0  0  0  0  0  0  0  0
  1  2  1  0  0  0  0
  2  3  1  0  0  0  0
  2  4  1  0  0  0  0
  2  5  1  0  0  0  0
  5  6  2  0  0  0  0
  5  7  1  0  0  0  0
  7  8  1  0  0  0  0
  7  9  1  0  0  0  0
  7 10  1  0  0  0  0
 10 11  1  0  0  0  0
 10 12  1  0  0  0  0
 10 13  1  0  0  0  0
M  END
> <ChemID>
101826

> <source_casrn>
816-40-0

> <CAS>
816-40-0

> <SMILES>
CCC(=O)CBr

> <NAME>
1-BROMO-2-BUTANONE

> <preferred_name>
2-Butanone, 1-bromo-

> <iupac>
1-bromobutan-2-one

> <MPID>
26410

> <dsstox_substance_id>
DTXSID00231216

> <Canonical_QSARr>
CCC(=O)CBr

> <InChI_Code_QSARr>
InChI=1S/C4H7BrO/c1-2-4(6)3-5/h2-3H2,1H3

> <InChI Key_QSARr>
CCXQVBSQUQCEEO-UHFFFAOYSA-N

> <Salt_Solvent>
?

> <LogVP>
0.5603

$$$$
101830
  -INDIGO-08031723152D

 16 15  0  0  0  0  0  0  0  0999 V2000
    5.5425    0.0000    0.0000 C   0  0  0  0  0  0  0  0  0  0  0  0
    6.9282    0.8000    0.0000 H   0  0  0  0  0  0  0  0  0  0  0  0
    5.5425   -1.6000    0.0000 H   0  0  0  0  0  0  0  0  0  0  0  0
    4.1569    0.8000    0.0000 C   0  0  0  0  0  0  0  0  0  0  0  0
    4.1569    2.4000    0.0000 H   0  0  0  0  0  0  0  0  0  0  0  0
    2.7712    0.0000    0.0000 C   0  0  0  0  0  0  0  0  0  0  0  0
    2.7712   -1.6000    0.0000 O   0  0  0  0  0  0  0  0  0  0  0  0
    1.3856    0.8000    0.0000 O   0  0  0  0  0  0  0  0  0  0  0  0
    0.0001    0.0000    0.0000 C   0  0  0  0  0  0  0  0  0  0  0  0
   -0.6123   -1.4782    0.0000 H   0  0  0  0  0  0  0  0  0  0  0  0
    0.6122   -1.4782    0.0000 H   0  0  0  0  0  0  0  0  0  0  0  0
   -1.3856    0.8000    0.0000 C   0  0  0  0  0  0  0  0  0  0  0  0
   -0.7733    2.2782    0.0000 H   0  0  0  0  0  0  0  0  0  0  0  0
   -1.9979    2.2782    0.0000 H   0  0  0  0  0  0  0  0  0  0  0  0
   -2.7713    0.0000    0.0000 O   0  0  0  0  0  0  0  0  0  0  0  0
   -4.1569    0.8000    0.0000 H   0  0  0  0  0  0  0  0  0  0  0  0
  1  2  1  0  0  0  0
  1  3  1  0  0  0  0
  1  4  2  0  0  0  0
  4  5  1  0  0  0  0
  4  6  1  0  0  0  0
  6  7  2  0  0  0  0
  6  8  1  0  0  0  0
  8  9  1  0  0  0  0
  9 10  1  0  0  0  0
  9 11  1  0  0  0  0
  9 12  1  0  0  0  0
 12 13  1  0  0  0  0
 12 14  1  0  0  0  0
 12 15  1  0  0  0  0
 15 16  1  0  0  0  0
M  END
> <ChemID>
101830

> <source_casrn>
818-61-1

> <CAS>
818-61-1

> <SMILES>
C=CC(=O)OCCO

> <NAME>
2-HYDROXYETHYL ACRYLATE

> <preferred_name>
2-Hydroxyethyl acrylate

> <iupac>
2-hydroxyethyl prop-2-enoate

> <MPID>
26414

> <dsstox_substance_id>
DTXSID2022123

> <Canonical_QSARr>
C=CC(=O)OCCO

> <InChI_Code_QSARr>
InChI=1S/C5H8O3/c1-2-5(7)8-4-3-6/h2,6H,1,3-4H2

> <InChI Key_QSARr>
OMIGHNLMNHATMP-UHFFFAOYSA-N

> <Salt_Solvent>
?

> <LogVP>
-1.2815

$$$$
101836
  -INDIGO-08031723152D

 28 29  0  0  0  0  0  0  0  0999 V2000
   -1.5757   -0.2779    0.0000 C   0  0  0  0  0  0  0  0  0  0  0  0
   -0.0000   -0.0000    0.0000 C   0  0  0  0  0  0  0  0  0  0  0  0
   -0.5472   -1.5035    0.0000 H   0  0  0  0  0  0  0  0  0  0  0  0
   -0.0000    1.6000    0.0000 C   0  0  0  0  0  0  0  0  0  0  0  0
   -1.5757    1.3221    0.0000 H   0  0  0  0  0  0  0  0  0  0  0  0
   -0.5472    3.1036    0.0000 H   0  0  0  0  0  0  0  0  0  0  0  0
    1.3857    2.4000    0.0000 C   0  0  0  0  0  0  0  0  0  0  0  0
    0.3572    3.6257    0.0000 H   0  0  0  0  0  0  0  0  0  0  0  0
    2.4141    3.6257    0.0000 H   0  0  0  0  0  0  0  0  0  0  0  0
    2.7713    1.6000    0.0000 C   0  0  0  0  0  0  0  0  0  0  0  0
    3.3185    3.1036    0.0000 H   0  0  0  0  0  0  0  0  0  0  0  0
    4.3470    1.3221    0.0000 H   0  0  0  0  0  0  0  0  0  0  0  0
    2.7713   -0.0000    0.0000 C   0  0  0  0  0  0  0  0  0  0  0  0
    4.3470    0.2778    0.0000 H   0  0  0  0  0  0  0  0  0  0  0  0
    3.3185   -1.5035    0.0000 H   0  0  0  0  0  0  0  0  0  0  0  0
    1.3857   -0.8000    0.0000 C   0  0  0  0  0  0  0  0  0  0  0  0
    2.4141   -2.0256    0.0000 H   0  0  0  0  0  0  0  0  0  0  0  0
    0.3572   -2.0256    0.0000 H   0  0  0  0  0  0  0  0  0  0  0  0
   -2.6042    0.9479    0.0000 C   0  0  0  0  0  0  0  0  0  0  0  0
   -2.0568    2.4514    0.0000 H   0  0  0  0  0  0  0  0  0  0  0  0
   -4.1798    0.6700    0.0000 C   0  0  0  0  0  0  0  0  0  0  0  0
   -5.2083    1.8957    0.0000 H   0  0  0  0  0  0  0  0  0  0  0  0
   -4.7271   -0.8336    0.0000 C   0  0  0  0  0  0  0  0  0  0  0  0
   -6.3028   -1.1114    0.0000 H   0  0  0  0  0  0  0  0  0  0  0  0
   -3.6986   -2.0592    0.0000 C   0  0  0  0  0  0  0  0  0  0  0  0
   -4.2458   -3.5627    0.0000 H   0  0  0  0  0  0  0  0  0  0  0  0
   -2.1230   -1.7814    0.0000 C   0  0  0  0  0  0  0  0  0  0  0  0
   -1.0945   -3.0070    0.0000 H   0  0  0  0  0  0  0  0  0  0  0  0
  1  2  1  0  0  0  0
  2  3  1  0  0  0  0
  2  4  1  0  0  0  0
  4  5  1  0  0  0  0
  4  6  1  0  0  0  0
  4  7  1  0  0  0  0
  7  8  1  0  0  0  0
  7  9  1  0  0  0  0
  7 10  1  0  0  0  0
 10 11  1  0  0  0  0
 10 12  1  0  0  0  0
 10 13  1  0  0  0  0
 13 14  1  0  0  0  0
 13 15  1  0  0  0  0
 13 16  1  0  0  0  0
 16  2  1  0  0  0  0
 16 17  1  0  0  0  0
 16 18  1  0  0  0  0
  1 19  1  0  0  0  0
 19 20  1  0  0  0  0
 19 21  2  0  0  0  0
 21 22  1  0  0  0  0
 21 23  1  0  0  0  0
 23 24  1  0  0  0  0
 23 25  2  0  0  0  0
 25 26  1  0  0  0  0
 25 27  1  0  0  0  0
 27  1  2  0  0  0  0
 27 28  1  0  0  0  0
M  END
> <ChemID>
101836

> <source_casrn>
827-52-1

> <CAS>
827-52-1

> <SMILES>
C1CCCCC1c1ccccc1

> <NAME>
PHENYL CYCLOHEXANE

> <preferred_name>
Cyclohexylbenzene

> <iupac>
Cyclohexylbenzene

> <MPID>
26418

> <dsstox_substance_id>
DTXSID3061188

> <Canonical_QSARr>
C1CCCCC1c1ccccc1

> <InChI_Code_QSARr>
InChI=1S/C12H16/c1-3-7-11(8-4-1)12-9-5-2-6-10-12/h1,3-4,7-8,12H,2,5-6,9-10H2

> <InChI Key_QSARr>
IGARGHRYKHJQSM-UHFFFAOYSA-N

> <Salt_Solvent>
?

> <LogVP>
-1.399

$$$$
101841
  -INDIGO-08031723152D

 19 18  0  0  0  0  0  0  0  0999 V2000
    4.1569    2.4000    0.0000 C   0  0  0  0  0  0  0  0  0  0  0  0
    5.5425    3.2000    0.0000 H   0  0  0  0  0  0  0  0  0  0  0  0
    2.7712    3.2000    0.0000 H   0  0  0  0  0  0  0  0  0  0  0  0
    4.1569    0.8000    0.0000 C   0  0  0  0  0  0  0  0  0  0  0  0
    5.5425    0.0000    0.0000 C   0  0  0  0  0  0  0  0  0  0  0  0
    6.9282   -0.8000    0.0000 H   0  0  0  0  0  0  0  0  0  0  0  0
    6.9282    0.8000    0.0000 H   0  0  0  0  0  0  0  0  0  0  0  0
    5.5425   -1.6000    0.0000 H   0  0  0  0  0  0  0  0  0  0  0  0
    2.7712    0.0000    0.0000 C   0  0  0  0  0  0  0  0  0  0  0  0
    2.7712   -1.6000    0.0000 O   0  0  0  0  0  0  0  0  0  0  0  0
    1.3856    0.8000    0.0000 O   0  0  0  0  0  0  0  0  0  0  0  0
    0.0001    0.0000    0.0000 C   0  0  0  0  0  0  0  0  0  0  0  0
   -0.6123   -1.4782    0.0000 H   0  0  0  0  0  0  0  0  0  0  0  0
    0.6122   -1.4782    0.0000 H   0  0  0  0  0  0  0  0  0  0  0  0
   -1.3856    0.8000    0.0000 C   0  0  0  0  0  0  0  0  0  0  0  0
   -0.7733    2.2782    0.0000 H   0  0  0  0  0  0  0  0  0  0  0  0
   -1.9979    2.2782    0.0000 H   0  0  0  0  0  0  0  0  0  0  0  0
   -2.7713    0.0000    0.0000 O   0  0  0  0  0  0  0  0  0  0  0  0
   -4.1569    0.8000    0.0000 H   0  0  0  0  0  0  0  0  0  0  0  0
  1  2  1  0  0  0  0
  1  3  1  0  0  0  0
  1  4  2  0  0  0  0
  4  5  1  0  0  0  0
  5  6  1  0  0  0  0
  5  7  1  0  0  0  0
  5  8  1  0  0  0  0
  4  9  1  0  0  0  0
  9 10  2  0  0  0  0
  9 11  1  0  0  0  0
 11 12  1  0  0  0  0
 12 13  1  0  0  0  0
 12 14  1  0  0  0  0
 12 15  1  0  0  0  0
 15 16  1  0  0  0  0
 15 17  1  0  0  0  0
 15 18  1  0  0  0  0
 18 19  1  0  0  0  0
M  END
> <ChemID>
101841

> <source_casrn>
868-77-9

> <CAS>
868-77-9

> <SMILES>
CC(=C)C(=O)OCCO

> <NAME>
2-HYDROXYETHYL METHACRYLATE

> <preferred_name>
2-Hydroxyethyl methacrylate

> <iupac>
2-hydroxyethyl 2-methylprop-2-enoate

> <MPID>
26422

> <dsstox_substance_id>
DTXSID7022128

> <Canonical_QSARr>
CC(=C)C(=O)OCCO

> <InChI_Code_QSARr>
InChI=1S/C6H10O3/c1-5(2)6(8)9-4-3-7/h7H,1,3-4H2,2H3

> <InChI Key_QSARr>
WOBHKFSMXKNTIM-UHFFFAOYSA-N

> <Salt_Solvent>
?

> <LogVP>
-0.8996

$$$$
101845
  -INDIGO-08031723152D

 30 29  0  0  0  0  0  0  0  0999 V2000
    6.9281    0.8000    0.0000 C   0  0  0  0  0  0  0  0  0  0  0  0
    8.3138    0.0000    0.0000 H   0  0  0  0  0  0  0  0  0  0  0  0
    6.9281    2.4000    0.0000 H   0  0  0  0  0  0  0  0  0  0  0  0
    5.5427    0.0000    0.0000 C   0  0  0  0  0  0  0  0  0  0  0  0
    5.5427   -1.6000    0.0000 H   0  0  0  0  0  0  0  0  0  0  0  0
    4.1570    0.8000    0.0000 C   0  0  0  0  0  0  0  0  0  0  0  0
    4.7691    2.2782    0.0000 H   0  0  0  0  0  0  0  0  0  0  0  0
    3.5446    2.2782    0.0000 H   0  0  0  0  0  0  0  0  0  0  0  0
    2.7713    0.0000    0.0000 C   0  0  0  0  0  0  0  0  0  0  0  0
    2.1589   -1.4782    0.0000 H   0  0  0  0  0  0  0  0  0  0  0  0
    3.3836   -1.4782    0.0000 H   0  0  0  0  0  0  0  0  0  0  0  0
    1.3856    0.8000    0.0000 C   0  0  0  0  0  0  0  0  0  0  0  0
    1.9979    2.2782    0.0000 H   0  0  0  0  0  0  0  0  0  0  0  0
    0.7734    2.2782    0.0000 H   0  0  0  0  0  0  0  0  0  0  0  0
    0.0001    0.0000    0.0000 C   0  0  0  0  0  0  0  0  0  0  0  0
   -0.6123   -1.4782    0.0000 H   0  0  0  0  0  0  0  0  0  0  0  0
    0.6122   -1.4782    0.0000 H   0  0  0  0  0  0  0  0  0  0  0  0
   -1.3856    0.8000    0.0000 C   0  0  0  0  0  0  0  0  0  0  0  0
   -0.7732    2.2782    0.0000 H   0  0  0  0  0  0  0  0  0  0  0  0
   -1.9980    2.2782    0.0000 H   0  0  0  0  0  0  0  0  0  0  0  0
   -2.7713    0.0000    0.0000 C   0  0  0  0  0  0  0  0  0  0  0  0
   -3.3835   -1.4782    0.0000 H   0  0  0  0  0  0  0  0  0  0  0  0
   -2.1589   -1.4782    0.0000 H   0  0  0  0  0  0  0  0  0  0  0  0
   -4.1570    0.8000    0.0000 C   0  0  0  0  0  0  0  0  0  0  0  0
   -3.5446    2.2782    0.0000 H   0  0  0  0  0  0  0  0  0  0  0  0
   -4.7692    2.2782    0.0000 H   0  0  0  0  0  0  0  0  0  0  0  0
   -5.5425    0.0000    0.0000 C   0  0  0  0  0  0  0  0  0  0  0  0
   -6.9282   -0.8000    0.0000 H   0  0  0  0  0  0  0  0  0  0  0  0
   -6.9282    0.8000    0.0000 H   0  0  0  0  0  0  0  0  0  0  0  0
   -5.5425   -1.6000    0.0000 H   0  0  0  0  0  0  0  0  0  0  0  0
  1  2  1  0  0  0  0
  1  3  1  0  0  0  0
  1  4  2  0  0  0  0
  4  5  1  0  0  0  0
  4  6  1  0  0  0  0
  6  7  1  0  0  0  0
  6  8  1  0  0  0  0
  6  9  1  0  0  0  0
  9 10  1  0  0  0  0
  9 11  1  0  0  0  0
  9 12  1  0  0  0  0
 12 13  1  0  0  0  0
 12 14  1  0  0  0  0
 12 15  1  0  0  0  0
 15 16  1  0  0  0  0
 15 17  1  0  0  0  0
 15 18  1  0  0  0  0
 18 19  1  0  0  0  0
 18 20  1  0  0  0  0
 18 21  1  0  0  0  0
 21 22  1  0  0  0  0
 21 23  1  0  0  0  0
 21 24  1  0  0  0  0
 24 25  1  0  0  0  0
 24 26  1  0  0  0  0
 24 27  1  0  0  0  0
 27 28  1  0  0  0  0
 27 29  1  0  0  0  0
 27 30  1  0  0  0  0
M  END
> <ChemID>
101845

> <source_casrn>
872-05-9

> <CAS>
872-05-9

> <SMILES>
CCCCCCCCC=C

> <NAME>
1-DECENE

> <preferred_name>
1-Decene

> <iupac>
dec-1-ene

> <MPID>
26426

> <dsstox_substance_id>
DTXSID8027329

> <Canonical_QSARr>
CCCCCCCCC=C

> <InChI_Code_QSARr>
InChI=1S/C10H20/c1-3-5-7-9-10-8-6-4-2/h3H,1,4-10H2,2H3

> <InChI Key_QSARr>
AFFLGGQVNFXPEV-UHFFFAOYSA-N

> <Salt_Solvent>
?

> <LogVP>
0.2227

$$$$
101850
  -INDIGO-08031723152D

 18 18  0  0  0  0  0  0  0  0999 V2000
    1.3856    2.4000    0.0000 O   0  0  0  0  0  0  0  0  0  0  0  0
    1.3856    0.8000    0.0000 C   0  0  0  0  0  0  0  0  0  0  0  0
    2.7713   -0.0000    0.0000 N   0  0  0  0  0  0  0  0  0  0  0  0
    4.1570    0.8000    0.0000 C   0  0  0  0  0  0  0  0  0  0  0  0
    5.5426    1.6000    0.0000 H   0  0  0  0  0  0  0  0  0  0  0  0
    5.5426   -0.0000    0.0000 H   0  0  0  0  0  0  0  0  0  0  0  0
    4.1570    2.4000    0.0000 H   0  0  0  0  0  0  0  0  0  0  0  0
    2.7713   -1.6000    0.0000 C   0  0  0  0  0  0  0  0  0  0  0  0
    4.1569   -2.4000    0.0000 H   0  0  0  0  0  0  0  0  0  0  0  0
    1.3856   -2.4000    0.0000 C   0  0  0  0  0  0  0  0  0  0  0  0
    1.3856   -4.0000    0.0000 H   0  0  0  0  0  0  0  0  0  0  0  0
    0.0000   -1.6000    0.0000 C   0  0  0  0  0  0  0  0  0  0  0  0
   -1.3856   -2.4000    0.0000 O   0  0  0  0  0  0  0  0  0  0  0  0
    0.0000   -0.0000    0.0000 N   0  0  0  0  0  0  0  0  0  0  0  0
   -1.3856    0.8000    0.0000 C   0  0  0  0  0  0  0  0  0  0  0  0
   -2.7713    1.6000    0.0000 H   0  0  0  0  0  0  0  0  0  0  0  0
   -2.7713   -0.0000    0.0000 H   0  0  0  0  0  0  0  0  0  0  0  0
   -1.3856    2.4000    0.0000 H   0  0  0  0  0  0  0  0  0  0  0  0
  1  2  2  0  0  0  0
  2  3  1  0  0  0  0
  3  4  1  0  0  0  0
  4  5  1  0  0  0  0
  4  6  1  0  0  0  0
  4  7  1  0  0  0  0
  3  8  1  0  0  0  0
  8  9  1  0  0  0  0
  8 10  2  0  0  0  0
 10 11  1  0  0  0  0
 10 12  1  0  0  0  0
 12 13  2  0  0  0  0
 12 14  1  0  0  0  0
 14  2  1  0  0  0  0
 14 15  1  0  0  0  0
 15 16  1  0  0  0  0
 15 17  1  0  0  0  0
 15 18  1  0  0  0  0
M  END
> <ChemID>
101850

> <source_casrn>
874-14-6

> <CAS>
874-14-6

> <SMILES>
CN1C=CC(=O)N(C)C1=O

> <NAME>
2,4(1H,3H)-PYRIMIDINEDIONE, 1,3-DIMETHYL-

> <preferred_name>
2,4(1H,3H)-Pyrimidinedione, 1,3-dimethyl-

> <iupac>
1,3-dimethylpyrimidine-2,4-dione

> <MPID>
26430

> <dsstox_substance_id>
DTXSID0061244

> <Canonical_QSARr>
CN1C=CC(=O)N(C)C1=O

> <InChI_Code_QSARr>
InChI=1S/C6H8N2O2/c1-7-4-3-5(9)8(2)6(7)10/h3-4H,1-2H3

> <InChI Key_QSARr>
JSDBKAHWADVXFU-UHFFFAOYSA-N

> <Salt_Solvent>
?

> <LogVP>
-2.2581

$$$$
101854
  -INDIGO-08031723152D

 24 25  0  0  0  0  0  0  0  0999 V2000
    0.0000    1.6000    0.0000 C   0  0  0  0  0  0  0  0  0  0  0  0
    1.3857    2.4001    0.0000 H   0  0  0  0  0  0  0  0  0  0  0  0
   -1.3857    2.4001    0.0000 C   0  0  0  0  0  0  0  0  0  0  0  0
   -1.3857    4.0000    0.0000 H   0  0  0  0  0  0  0  0  0  0  0  0
   -2.7712    1.6000    0.0000 C   0  0  0  0  0  0  0  0  0  0  0  0
   -4.1569    2.4001    0.0000 H   0  0  0  0  0  0  0  0  0  0  0  0
   -2.7712   -0.0000    0.0000 C   0  0  0  0  0  0  0  0  0  0  0  0
   -4.1569   -0.8000    0.0000 H   0  0  0  0  0  0  0  0  0  0  0  0
   -1.3857   -0.8000    0.0000 C   0  0  0  0  0  0  0  0  0  0  0  0
   -1.3857   -2.4000    0.0000 H   0  0  0  0  0  0  0  0  0  0  0  0
    0.0000   -0.0000    0.0000 C   0  0  0  0  0  0  0  0  0  0  0  0
    1.3857   -0.8000    0.0000 S   0  0  0  0  0  0  0  0  0  0  0  0
    2.7712   -0.0000    0.0000 S   0  0  0  0  0  0  0  0  0  0  0  0
    4.1569   -0.8000    0.0000 C   0  0  0  0  0  0  0  0  0  0  0  0
    4.1569   -2.4000    0.0000 C   0  0  0  0  0  0  0  0  0  0  0  0
    2.7712   -3.2001    0.0000 H   0  0  0  0  0  0  0  0  0  0  0  0
    5.5426   -3.2001    0.0000 C   0  0  0  0  0  0  0  0  0  0  0  0
    5.5426   -4.8000    0.0000 H   0  0  0  0  0  0  0  0  0  0  0  0
    6.9281   -2.4000    0.0000 C   0  0  0  0  0  0  0  0  0  0  0  0
    8.3138   -3.2001    0.0000 H   0  0  0  0  0  0  0  0  0  0  0  0
    6.9281   -0.8000    0.0000 C   0  0  0  0  0  0  0  0  0  0  0  0
    8.3138   -0.0000    0.0000 H   0  0  0  0  0  0  0  0  0  0  0  0
    5.5426   -0.0000    0.0000 C   0  0  0  0  0  0  0  0  0  0  0  0
    5.5426    1.6000    0.0000 H   0  0  0  0  0  0  0  0  0  0  0  0
  1  2  1  0  0  0  0
  1  3  1  0  0  0  0
  3  4  1  0  0  0  0
  3  5  2  0  0  0  0
  5  6  1  0  0  0  0
  5  7  1  0  0  0  0
  7  8  1  0  0  0  0
  7  9  2  0  0  0  0
  9 10  1  0  0  0  0
  9 11  1  0  0  0  0
 11  1  2  0  0  0  0
 11 12  1  0  0  0  0
 12 13  1  0  0  0  0
 13 14  1  0  0  0  0
 14 15  1  0  0  0  0
 15 16  1  0  0  0  0
 15 17  2  0  0  0  0
 17 18  1  0  0  0  0
 17 19  1  0  0  0  0
 19 20  1  0  0  0  0
 19 21  2  0  0  0  0
 21 22  1  0  0  0  0
 21 23  1  0  0  0  0
 23 14  2  0  0  0  0
 23 24  1  0  0  0  0
M  END
> <ChemID>
101854

> <source_casrn>
882-33-7

> <CAS>
882-33-7

> <SMILES>
c1ccccc1SSc1ccccc1

> <NAME>
DIPHENYL DISULFIDE

> <preferred_name>
Diphenyl disulfide

> <iupac>
diphenyl disulfide

> <MPID>
26434

> <dsstox_substance_id>
DTXSID6022131

> <Canonical_QSARr>
c1ccccc1SSc1ccccc1

> <InChI_Code_QSARr>
InChI=1S/C12H10S2/c1-3-7-11(8-4-1)13-14-12-9-5-2-6-10-12/h1-10H

> <InChI Key_QSARr>
GUUVPOWQJOLRAS-UHFFFAOYSA-N

> <Salt_Solvent>
?

> <LogVP>
-3.6576

$$$$
101859
  -INDIGO-08031723152D

 12 11  0  0  0  0  0  0  0  0999 V2000
    1.6000    0.0000    0.0000 C   0  0  0  0  0  0  0  0  0  0  0  0
    3.2000    0.0000    0.0000 F   0  0  0  0  0  0  0  0  0  0  0  0
    2.4000   -1.3856    0.0000 F   0  0  0  0  0  0  0  0  0  0  0  0
    2.4000    1.3856    0.0000 F   0  0  0  0  0  0  0  0  0  0  0  0
    0.0000    0.0000    0.0000 C   0  0  0  0  0  0  0  0  0  0  0  0
    0.0000   -1.6000    0.0000 H   0  0  0  0  0  0  0  0  0  0  0  0
    0.0000    1.6000    0.0000 O   0  0  0  0  0  0  0  0  0  0  0  0
    1.3856    2.4000    0.0000 H   0  0  0  0  0  0  0  0  0  0  0  0
   -1.6000    0.0000    0.0000 C   0  0  0  0  0  0  0  0  0  0  0  0
   -3.2000    0.0000    0.0000 F   0  0  0  0  0  0  0  0  0  0  0  0
   -2.4000   -1.3856    0.0000 F   0  0  0  0  0  0  0  0  0  0  0  0
   -2.4000    1.3856    0.0000 F   0  0  0  0  0  0  0  0  0  0  0  0
  1  2  1  0  0  0  0
  1  3  1  0  0  0  0
  1  4  1  0  0  0  0
  1  5  1  0  0  0  0
  5  6  1  0  0  0  0
  5  7  1  0  0  0  0
  7  8  1  0  0  0  0
  5  9  1  0  0  0  0
  9 10  1  0  0  0  0
  9 11  1  0  0  0  0
  9 12  1  0  0  0  0
M  END
> <ChemID>
101859

> <source_casrn>
920-66-1

> <CAS>
920-66-1

> <SMILES>
OC(C(F)(F)F)C(F)(F)F

> <NAME>
1,1,1,3,3,3-HEXAFLUOROPROPAN-2-OL

> <preferred_name>
1,1,1,3,3,3-Hexafluoro-2-propanol

> <iupac>
1,1,1,3,3,3-hexafluoropropan-2-ol

> <MPID>
26438

> <dsstox_substance_id>
DTXSID1022134

> <Canonical_QSARr>
OC(C(F)(F)F)C(F)(F)F

> <InChI_Code_QSARr>
InChI=1S/C3H2F6O/c4-2(5,6)1(10)3(7,8)9/h1,10H

> <InChI Key_QSARr>
BYEAHWXPCBROCE-UHFFFAOYSA-N

> <Salt_Solvent>
?

> <LogVP>
2.2017

$$$$
101863
  -INDIGO-08031723152D

 18 17  0  0  0  0  0  0  0  0999 V2000
    4.1569    0.8000    0.0000 C   0  0  0  0  0  0  0  0  0  0  0  0
    4.1569    2.4000    0.0000 O   0  0  0  0  0  0  0  0  0  0  0  0
    2.7714    0.0000    0.0000 O   0  0  0  0  0  0  0  0  0  0  0  0
    1.3857    0.8000    0.0000 C   0  0  0  0  0  0  0  0  0  0  0  0
    0.7734    2.2782    0.0000 H   0  0  0  0  0  0  0  0  0  0  0  0
    1.9979    2.2782    0.0000 H   0  0  0  0  0  0  0  0  0  0  0  0
    0.0000    0.0000    0.0000 C   0  0  0  0  0  0  0  0  0  0  0  0
    0.6124   -1.4782    0.0000 H   0  0  0  0  0  0  0  0  0  0  0  0
   -0.6123   -1.4782    0.0000 H   0  0  0  0  0  0  0  0  0  0  0  0
   -1.3856    0.8000    0.0000 C   0  0  0  0  0  0  0  0  0  0  0  0
   -2.7713    1.6000    0.0000 H   0  0  0  0  0  0  0  0  0  0  0  0
   -2.7713    0.0000    0.0000 H   0  0  0  0  0  0  0  0  0  0  0  0
   -1.3856    2.4000    0.0000 H   0  0  0  0  0  0  0  0  0  0  0  0
    5.5425    0.0000    0.0000 C   0  0  0  0  0  0  0  0  0  0  0  0
    5.5425   -1.6000    0.0000 H   0  0  0  0  0  0  0  0  0  0  0  0
    6.9282    0.8000    0.0000 C   0  0  0  0  0  0  0  0  0  0  0  0
    8.3138    0.0000    0.0000 H   0  0  0  0  0  0  0  0  0  0  0  0
    6.9282    2.4000    0.0000 H   0  0  0  0  0  0  0  0  0  0  0  0
  1  2  2  0  0  0  0
  1  3  1  0  0  0  0
  3  4  1  0  0  0  0
  4  5  1  0  0  0  0
  4  6  1  0  0  0  0
  4  7  1  0  0  0  0
  7  8  1  0  0  0  0
  7  9  1  0  0  0  0
  7 10  1  0  0  0  0
 10 11  1  0  0  0  0
 10 12  1  0  0  0  0
 10 13  1  0  0  0  0
  1 14  1  0  0  0  0
 14 15  1  0  0  0  0
 14 16  2  0  0  0  0
 16 17  1  0  0  0  0
 16 18  1  0  0  0  0
M  END
> <ChemID>
101863

> <source_casrn>
925-60-0

> <CAS>
925-60-0

> <SMILES>
CCCOC(=O)C=C

> <NAME>
2-PROPENOIC ACID, PROPYL ESTER

> <preferred_name>
2-Propenoic acid, propyl ester

> <iupac>
propyl prop-2-enoate

> <MPID>
26442

> <dsstox_substance_id>
DTXSID6061288

> <Canonical_QSARr>
CCCOC(=O)C=C

> <InChI_Code_QSARr>
InChI=1S/C6H10O2/c1-3-5-8-6(7)4-2/h4H,2-3,5H2,1H3

> <InChI Key_QSARr>
PNXMTCDJUBJHQJ-UHFFFAOYSA-N

> <Salt_Solvent>
?

> <LogVP>
1.1602

$$$$
101867
  -INDIGO-08031723152D

 15 15  0  0  0  0  0  0  0  0999 V2000
   -4.8967   -0.0742    0.0000 O   0  0  0  0  0  0  0  0  0  0  0  0
   -3.9563    1.2202    0.0000 N   0  0  0  0  0  0  0  0  0  0  0  0
   -2.3650    1.0530    0.0000 N   0  0  0  0  0  0  0  0  0  0  0  0
   -1.2944    2.2420    0.0000 C   0  0  0  0  0  0  0  0  0  0  0  0
   -2.5888    3.1825    0.0000 H   0  0  0  0  0  0  0  0  0  0  0  0
   -0.4944    3.6277    0.0000 H   0  0  0  0  0  0  0  0  0  0  0  0
    0.1673    1.5912    0.0000 C   0  0  0  0  0  0  0  0  0  0  0  0
    0.6617    3.1130    0.0000 H   0  0  0  0  0  0  0  0  0  0  0  0
    1.7323    1.2586    0.0000 H   0  0  0  0  0  0  0  0  0  0  0  0
    0.0001    0.0000    0.0000 C   0  0  0  0  0  0  0  0  0  0  0  0
    1.6000    0.0000    0.0000 H   0  0  0  0  0  0  0  0  0  0  0  0
    0.1673   -1.5913    0.0000 H   0  0  0  0  0  0  0  0  0  0  0  0
   -1.5651   -0.3327    0.0000 C   0  0  0  0  0  0  0  0  0  0  0  0
   -1.0706   -1.8543    0.0000 H   0  0  0  0  0  0  0  0  0  0  0  0
   -3.0267   -0.9835    0.0000 H   0  0  0  0  0  0  0  0  0  0  0  0
  1  2  2  0  0  0  0
  2  3  1  0  0  0  0
  3  4  1  0  0  0  0
  4  5  1  0  0  0  0
  4  6  1  0  0  0  0
  4  7  1  0  0  0  0
  7  8  1  0  0  0  0
  7  9  1  0  0  0  0
  7 10  1  0  0  0  0
 10 11  1  0  0  0  0
 10 12  1  0  0  0  0
 10 13  1  0  0  0  0
 13  3  1  0  0  0  0
 13 14  1  0  0  0  0
 13 15  1  0  0  0  0
M  END
> <ChemID>
101867

> <source_casrn>
930-55-2

> <CAS>
930-55-2

> <SMILES>
O=NN1CCCC1

> <NAME>
N-NITROSOPYRROLIDINE

> <preferred_name>
N-Nitrosopyrrolidine

> <iupac>
1-nitrosopyrrolidine

> <MPID>
26446

> <dsstox_substance_id>
DTXSID8021062

> <Canonical_QSARr>
O=NN1CCCC1

> <InChI_Code_QSARr>
InChI=1S/C4H8N2O/c7-5-6-3-1-2-4-6/h1-4H2

> <InChI Key_QSARr>
WNYADZVDBIBLJJ-UHFFFAOYSA-N

> <Salt_Solvent>
?

> <LogVP>
-1.2218

$$$$
101871
  -INDIGO-08031723152D

 24 24  0  0  0  0  0  0  0  0999 V2000
    2.4000    1.3856    0.0000 C   0  0  0  0  0  0  0  0  0  0  0  0
    3.2001    0.0000    0.0000 C   0  0  0  0  0  0  0  0  0  0  0  0
    4.8000    0.0000    0.0000 H   0  0  0  0  0  0  0  0  0  0  0  0
    2.4000   -1.3856    0.0000 C   0  0  0  0  0  0  0  0  0  0  0  0
    3.2001   -2.7713    0.0000 H   0  0  0  0  0  0  0  0  0  0  0  0
    0.8000   -1.3856    0.0000 C   0  0  0  0  0  0  0  0  0  0  0  0
    0.0000   -2.7713    0.0000 H   0  0  0  0  0  0  0  0  0  0  0  0
    0.0000    0.0000    0.0000 C   0  0  0  0  0  0  0  0  0  0  0  0
   -1.6000    0.0000    0.0000 C   0  0  0  0  0  0  0  0  0  0  0  0
   -1.8088    1.5863    0.0000 H   0  0  0  0  0  0  0  0  0  0  0  0
   -2.8694    0.9740    0.0000 H   0  0  0  0  0  0  0  0  0  0  0  0
   -2.4001   -1.3856    0.0000 C   0  0  0  0  0  0  0  0  0  0  0  0
   -3.2000   -2.7713    0.0000 H   0  0  0  0  0  0  0  0  0  0  0  0
   -4.0000   -1.3856    0.0000 H   0  0  0  0  0  0  0  0  0  0  0  0
   -1.6000   -2.7713    0.0000 H   0  0  0  0  0  0  0  0  0  0  0  0
    0.8000    1.3856    0.0000 C   0  0  0  0  0  0  0  0  0  0  0  0
    0.0000    2.7713    0.0000 C   0  0  0  0  0  0  0  0  0  0  0  0
   -0.8000    4.1569    0.0000 H   0  0  0  0  0  0  0  0  0  0  0  0
    0.8000    4.1569    0.0000 H   0  0  0  0  0  0  0  0  0  0  0  0
   -1.6000    2.7713    0.0000 H   0  0  0  0  0  0  0  0  0  0  0  0
    3.2001    2.7713    0.0000 C   0  0  0  0  0  0  0  0  0  0  0  0
    4.0000    4.1569    0.0000 H   0  0  0  0  0  0  0  0  0  0  0  0
    4.8000    2.7713    0.0000 H   0  0  0  0  0  0  0  0  0  0  0  0
    2.4000    4.1569    0.0000 H   0  0  0  0  0  0  0  0  0  0  0  0
  1  2  1  0  0  0  0
  2  3  1  0  0  0  0
  2  4  2  0  0  0  0
  4  5  1  0  0  0  0
  4  6  1  0  0  0  0
  6  7  1  0  0  0  0
  6  8  2  0  0  0  0
  8  9  1  0  0  0  0
  9 10  1  0  0  0  0
  9 11  1  0  0  0  0
  9 12  1  0  0  0  0
 12 13  1  0  0  0  0
 12 14  1  0  0  0  0
 12 15  1  0  0  0  0
  8 16  1  0  0  0  0
 16  1  2  0  0  0  0
 16 17  1  0  0  0  0
 17 18  1  0  0  0  0
 17 19  1  0  0  0  0
 17 20  1  0  0  0  0
  1 21  1  0  0  0  0
 21 22  1  0  0  0  0
 21 23  1  0  0  0  0
 21 24  1  0  0  0  0
M  END
> <ChemID>
101871

> <source_casrn>
933-98-2

> <CAS>
933-98-2

> <SMILES>
CCc1cccc(C)c1C

> <NAME>
1,2-DIMETHYL-3-ETHYLBENZENE

> <preferred_name>


> <iupac>


> <MPID>
26450

> <dsstox_substance_id>
DTXSID00865479

> <Canonical_QSARr>
CCc1cccc(C)c1C

> <InChI_Code_QSARr>
InChI=1S/C10H14/c1-4-10-7-5-6-8(2)9(10)3/h5-7H,4H2,1-3H3

> <InChI Key_QSARr>
QUBBAXISAHIDNM-UHFFFAOYSA-N

> <Salt_Solvent>
?

> <LogVP>
-0.2065

$$$$
101875
  -INDIGO-08031723152D

 24 25  0  0  0  0  0  0  0  0999 V2000
   -2.7712   -0.0000    0.0000 C   0  0  0  0  0  0  0  0  0  0  0  0
   -1.3856    0.8000    0.0000 C   0  0  0  0  0  0  0  0  0  0  0  0
   -1.3856    2.4000    0.0000 H   0  0  0  0  0  0  0  0  0  0  0  0
   -0.0001   -0.0000    0.0000 C   0  0  0  0  0  0  0  0  0  0  0  0
    1.3856    0.8000    0.0000 C   0  0  0  0  0  0  0  0  0  0  0  0
    1.9979    2.2782    0.0000 H   0  0  0  0  0  0  0  0  0  0  0  0
    0.7733    2.2782    0.0000 H   0  0  0  0  0  0  0  0  0  0  0  0
    2.7713   -0.0000    0.0000 C   0  0  0  0  0  0  0  0  0  0  0  0
    4.1569    0.8000    0.0000 H   0  0  0  0  0  0  0  0  0  0  0  0
    4.1569   -0.8000    0.0000 H   0  0  0  0  0  0  0  0  0  0  0  0
    2.7713    1.6000    0.0000 H   0  0  0  0  0  0  0  0  0  0  0  0
   -0.0001   -1.6000    0.0000 C   0  0  0  0  0  0  0  0  0  0  0  0
    1.3856   -2.4000    0.0000 H   0  0  0  0  0  0  0  0  0  0  0  0
   -1.3856   -2.4000    0.0000 C   0  0  0  0  0  0  0  0  0  0  0  0
   -1.3856   -4.0000    0.0000 H   0  0  0  0  0  0  0  0  0  0  0  0
   -2.7712   -1.6000    0.0000 C   0  0  0  0  0  0  0  0  0  0  0  0
   -4.1569   -2.4000    0.0000 C   0  0  0  0  0  0  0  0  0  0  0  0
   -4.1569   -4.0000    0.0000 H   0  0  0  0  0  0  0  0  0  0  0  0
   -5.5425   -1.6000    0.0000 C   0  0  0  0  0  0  0  0  0  0  0  0
   -6.9282   -2.4000    0.0000 H   0  0  0  0  0  0  0  0  0  0  0  0
   -5.5425   -0.0000    0.0000 C   0  0  0  0  0  0  0  0  0  0  0  0
   -6.9282    0.8000    0.0000 H   0  0  0  0  0  0  0  0  0  0  0  0
   -4.1569    0.8000    0.0000 C   0  0  0  0  0  0  0  0  0  0  0  0
   -4.1569    2.4000    0.0000 H   0  0  0  0  0  0  0  0  0  0  0  0
  1  2  1  0  0  0  0
  2  3  1  0  0  0  0
  2  4  2  0  0  0  0
  4  5  1  0  0  0  0
  5  6  1  0  0  0  0
  5  7  1  0  0  0  0
  5  8  1  0  0  0  0
  8  9  1  0  0  0  0
  8 10  1  0  0  0  0
  8 11  1  0  0  0  0
  4 12  1  0  0  0  0
 12 13  1  0  0  0  0
 12 14  2  0  0  0  0
 14 15  1  0  0  0  0
 14 16  1  0  0  0  0
 16  1  1  0  0  0  0
 16 17  2  0  0  0  0
 17 18  1  0  0  0  0
 17 19  1  0  0  0  0
 19 20  1  0  0  0  0
 19 21  2  0  0  0  0
 21 22  1  0  0  0  0
 21 23  1  0  0  0  0
 23  1  2  0  0  0  0
 23 24  1  0  0  0  0
M  END
> <ChemID>
101875

> <source_casrn>
939-27-5

> <CAS>
939-27-5

> <SMILES>
CCc1cc2ccccc2cc1

> <NAME>
2-ETHYLNAPHTHALENE

> <preferred_name>
2-Ethylnaphthalene

> <iupac>
2-Ethylnaphthalene

> <MPID>
26454

> <dsstox_substance_id>
DTXSID9061330

> <Canonical_QSARr>
CCc1cc2ccccc2cc1

> <InChI_Code_QSARr>
InChI=1S/C12H12/c1-2-10-7-8-11-5-3-4-6-12(11)9-10/h3-9H,2H2,1H3

> <InChI Key_QSARr>
RJTJVVYSTUQWNI-UHFFFAOYSA-N

> <Salt_Solvent>
?

> <LogVP>
-1.4999

$$$$
101879
  -INDIGO-08031723152D

 27 27  0  0  0  0  0  0  0  0999 V2000
   -0.6507    1.4616    0.0000 S   0  0  0  0  0  0  0  0  0  0  0  0
   -0.0000    0.0000    0.0000 P   0  0  0  0  0  0  0  0  0  0  0  0
    1.5911   -0.1672    0.0000 S   0  0  0  0  0  0  0  0  0  0  0  0
    2.5316    1.1272    0.0000 C   0  0  0  0  0  0  0  0  0  0  0  0
    2.4899    2.7266    0.0000 H   0  0  0  0  0  0  0  0  0  0  0  0
    1.3711    2.2286    0.0000 H   0  0  0  0  0  0  0  0  0  0  0  0
    4.1230    0.9599    0.0000 N   0  0  0  0  0  0  0  0  0  0  0  0
    5.1936    2.1490    0.0000 C   0  0  0  0  0  0  0  0  0  0  0  0
    4.8610    3.7140    0.0000 O   0  0  0  0  0  0  0  0  0  0  0  0
    6.6553    1.4982    0.0000 S   0  0  0  0  0  0  0  0  0  0  0  0
    6.4879   -0.0930    0.0000 C   0  0  0  0  0  0  0  0  0  0  0  0
    7.6771   -1.1637    0.0000 O   0  0  0  0  0  0  0  0  0  0  0  0
    9.1987   -0.6693    0.0000 C   0  0  0  0  0  0  0  0  0  0  0  0
   10.7204   -0.1748    0.0000 H   0  0  0  0  0  0  0  0  0  0  0  0
   10.3877   -1.7398    0.0000 H   0  0  0  0  0  0  0  0  0  0  0  0
    9.5314    0.8958    0.0000 H   0  0  0  0  0  0  0  0  0  0  0  0
    4.9229   -0.4257    0.0000 N   0  0  0  0  0  0  0  0  0  0  0  0
   -1.5912    0.1672    0.0000 O   0  0  0  0  0  0  0  0  0  0  0  0
   -2.2421    1.6289    0.0000 C   0  0  0  0  0  0  0  0  0  0  0  0
   -3.8332    1.7961    0.0000 H   0  0  0  0  0  0  0  0  0  0  0  0
   -2.8928    3.0906    0.0000 H   0  0  0  0  0  0  0  0  0  0  0  0
   -1.3016    2.9233    0.0000 H   0  0  0  0  0  0  0  0  0  0  0  0
   -0.9405   -1.2944    0.0000 O   0  0  0  0  0  0  0  0  0  0  0  0
   -0.2896   -2.7561    0.0000 C   0  0  0  0  0  0  0  0  0  0  0  0
    0.3611   -4.2178    0.0000 H   0  0  0  0  0  0  0  0  0  0  0  0
   -1.2301   -4.0505    0.0000 H   0  0  0  0  0  0  0  0  0  0  0  0
    1.3015   -2.9233    0.0000 H   0  0  0  0  0  0  0  0  0  0  0  0
  1  2  2  0  0  0  0
  2  3  1  0  0  0  0
  3  4  1  0  0  0  0
  4  5  1  0  0  0  0
  4  6  1  0  0  0  0
  4  7  1  0  0  0  0
  7  8  1  0  0  0  0
  8  9  2  0  0  0  0
  8 10  1  0  0  0  0
 10 11  1  0  0  0  0
 11 12  1  0  0  0  0
 12 13  1  0  0  0  0
 13 14  1  0  0  0  0
 13 15  1  0  0  0  0
 13 16  1  0  0  0  0
 11 17  2  0  0  0  0
 17  7  1  0  0  0  0
  2 18  1  0  0  0  0
 18 19  1  0  0  0  0
 19 20  1  0  0  0  0
 19 21  1  0  0  0  0
 19 22  1  0  0  0  0
  2 23  1  0  0  0  0
 23 24  1  0  0  0  0
 24 25  1  0  0  0  0
 24 26  1  0  0  0  0
 24 27  1  0  0  0  0
M  END
> <ChemID>
101879

> <source_casrn>
950-37-8

> <CAS>
950-37-8

> <SMILES>
COC1=NN(CSP(=S)(OC)OC)C(=O)S1

> <NAME>
METHIDATHION

> <preferred_name>
Methidathion

> <iupac>
S-[(5-methoxy-2-oxo-1,3,4-thiadiazol-3(2H)-yl)methyl] O,O-dimethyl phosphorodithioate

> <MPID>
26458

> <dsstox_substance_id>
DTXSID5020819

> <Canonical_QSARr>
COC1=NN(CSP(=S)(OC)OC)C(=O)S1

> <InChI_Code_QSARr>
InChI=1S/C6H11N2O4PS3/c1-10-5-7-8(6(9)16-5)4-15-13(14,11-2)12-3/h4H2,1-3H3

> <InChI Key_QSARr>
MEBQXILRKZHVCX-UHFFFAOYSA-N

> <Salt_Solvent>
?

> <LogVP>
-5.4724

$$$$
101884
  -INDIGO-08031723152D

 21 20  0  0  0  0  0  0  0  0999 V2000
    2.4000   -1.3856    0.0000 C   0  0  0  0  0  0  0  0  0  0  0  0
    3.2000   -2.7713    0.0000 H   0  0  0  0  0  0  0  0  0  0  0  0
    4.0000   -1.3856    0.0000 H   0  0  0  0  0  0  0  0  0  0  0  0
    1.6000   -2.7713    0.0000 H   0  0  0  0  0  0  0  0  0  0  0  0
    0.8000   -1.3856    0.0000 O   0  0  0  0  0  0  0  0  0  0  0  0
    0.0000    0.0001    0.0000 C   0  0  0  0  0  0  0  0  0  0  0  0
    1.3857    0.8000    0.0000 C   0  0  0  0  0  0  0  0  0  0  0  0
    2.7713    1.6000    0.0000 H   0  0  0  0  0  0  0  0  0  0  0  0
    1.3857    2.4000    0.0000 H   0  0  0  0  0  0  0  0  0  0  0  0
    2.7713    0.0001    0.0000 H   0  0  0  0  0  0  0  0  0  0  0  0
   -0.8000    1.3856    0.0000 C   0  0  0  0  0  0  0  0  0  0  0  0
   -1.6000    2.7713    0.0000 H   0  0  0  0  0  0  0  0  0  0  0  0
   -2.3757    1.6635    0.0000 H   0  0  0  0  0  0  0  0  0  0  0  0
    0.0000    2.7713    0.0000 H   0  0  0  0  0  0  0  0  0  0  0  0
   -1.3856   -0.8000    0.0000 C   0  0  0  0  0  0  0  0  0  0  0  0
   -2.3597    0.4693    0.0000 H   0  0  0  0  0  0  0  0  0  0  0  0
   -2.9720   -0.5912    0.0000 H   0  0  0  0  0  0  0  0  0  0  0  0
   -1.3856   -2.4000    0.0000 C   0  0  0  0  0  0  0  0  0  0  0  0
   -1.3856   -4.0000    0.0000 H   0  0  0  0  0  0  0  0  0  0  0  0
   -2.7713   -3.2000    0.0000 H   0  0  0  0  0  0  0  0  0  0  0  0
    0.0000   -3.2000    0.0000 H   0  0  0  0  0  0  0  0  0  0  0  0
  1  2  1  0  0  0  0
  1  3  1  0  0  0  0
  1  4  1  0  0  0  0
  1  5  1  0  0  0  0
  5  6  1  0  0  0  0
  6  7  1  0  0  0  0
  7  8  1  0  0  0  0
  7  9  1  0  0  0  0
  7 10  1  0  0  0  0
  6 11  1  0  0  0  0
 11 12  1  0  0  0  0
 11 13  1  0  0  0  0
 11 14  1  0  0  0  0
  6 15  1  0  0  0  0
 15 16  1  0  0  0  0
 15 17  1  0  0  0  0
 15 18  1  0  0  0  0
 18 19  1  0  0  0  0
 18 20  1  0  0  0  0
 18 21  1  0  0  0  0
M  END
> <ChemID>
101884

> <source_casrn>
994-05-8

> <CAS>
994-05-8

> <SMILES>
CCC(C)(C)OC

> <NAME>
METHYL-T-AMYL ETHER

> <preferred_name>
tert-Amyl methyl ether

> <iupac>
2-methoxy-2-methylbutane

> <MPID>
26463

> <dsstox_substance_id>
DTXSID8024521

> <Canonical_QSARr>
CCC(C)(C)OC

> <InChI_Code_QSARr>
InChI=1S/C6H14O/c1-5-6(2,3)7-4/h5H2,1-4H3

> <InChI Key_QSARr>
HVZJRWJGKQPSFL-UHFFFAOYSA-N

> <Salt_Solvent>
?

> <LogVP>
1.8763

$$$$
101889
  -INDIGO-08031723152D

 20 19  0  0  0  0  0  0  0  0999 V2000
    5.5425   -0.0000    0.0000 N   0  0  0  0  0  0  0  0  0  0  0  0
    6.9282    0.8000    0.0000 O   0  0  0  0  0  0  0  0  0  0  0  0
    5.5425   -1.6000    0.0000 O   0  0  0  0  0  0  0  0  0  0  0  0
    4.1569    0.8000    0.0000 O   0  0  0  0  0  0  0  0  0  0  0  0
    2.7712   -0.0000    0.0000 C   0  0  0  0  0  0  0  0  0  0  0  0
    3.3835   -1.4782    0.0000 H   0  0  0  0  0  0  0  0  0  0  0  0
    2.1591   -1.4782    0.0000 H   0  0  0  0  0  0  0  0  0  0  0  0
    1.3856    0.8000    0.0000 C   0  0  0  0  0  0  0  0  0  0  0  0
    0.7734    2.2782    0.0000 H   0  0  0  0  0  0  0  0  0  0  0  0
    1.9979    2.2782    0.0000 H   0  0  0  0  0  0  0  0  0  0  0  0
    0.0001   -0.0000    0.0000 C   0  0  0  0  0  0  0  0  0  0  0  0
    0.6122   -1.4782    0.0000 H   0  0  0  0  0  0  0  0  0  0  0  0
   -0.6123   -1.4782    0.0000 H   0  0  0  0  0  0  0  0  0  0  0  0
   -1.3856    0.8000    0.0000 C   0  0  0  0  0  0  0  0  0  0  0  0
   -1.9979    2.2782    0.0000 H   0  0  0  0  0  0  0  0  0  0  0  0
   -0.7733    2.2782    0.0000 H   0  0  0  0  0  0  0  0  0  0  0  0
   -2.7713   -0.0000    0.0000 C   0  0  0  0  0  0  0  0  0  0  0  0
   -4.1569   -0.8000    0.0000 H   0  0  0  0  0  0  0  0  0  0  0  0
   -4.1569    0.8000    0.0000 H   0  0  0  0  0  0  0  0  0  0  0  0
   -2.7713   -1.6000    0.0000 H   0  0  0  0  0  0  0  0  0  0  0  0
  1  2  1  0  0  0  0
  1  3  2  0  0  0  0
  1  4  1  0  0  0  0
  4  5  1  0  0  0  0
  5  6  1  0  0  0  0
  5  7  1  0  0  0  0
  5  8  1  0  0  0  0
  8  9  1  0  0  0  0
  8 10  1  0  0  0  0
  8 11  1  0  0  0  0
 11 12  1  0  0  0  0
 11 13  1  0  0  0  0
 11 14  1  0  0  0  0
 14 15  1  0  0  0  0
 14 16  1  0  0  0  0
 14 17  1  0  0  0  0
 17 18  1  0  0  0  0
 17 19  1  0  0  0  0
 17 20  1  0  0  0  0
M  CHG  2   1   1   2  -1
M  END
> <ChemID>
101889

> <source_casrn>
1002-16-0

> <CAS>
1002-16-0

> <SMILES>
CCCCCO[N+]([O-])=O

> <NAME>
1-PENTYL NITRATE

> <preferred_name>
Amyl nitrate

> <iupac>
Pentyl nitrate

> <MPID>
26468

> <dsstox_substance_id>
DTXSID2058708

> <Canonical_QSARr>
CCCCCO[N+]([O-])=O

> <InChI_Code_QSARr>
InChI=1S/C5H11NO3/c1-2-3-4-5-9-6(7)8/h2-5H2,1H3

> <InChI Key_QSARr>
HSNWZBCBUUSSQD-UHFFFAOYSA-N

> <Salt_Solvent>
?

> <LogVP>
0.705

$$$$
101894
  -INDIGO-08031723152D

 29 29  0  0  0  0  0  0  0  0999 V2000
    1.3856    0.8000    0.0000 C   0  0  0  0  0  0  0  0  0  0  0  0
    2.7713    1.6000    0.0000 H   0  0  0  0  0  0  0  0  0  0  0  0
    2.7713    0.0000    0.0000 H   0  0  0  0  0  0  0  0  0  0  0  0
    1.3856    2.4000    0.0000 H   0  0  0  0  0  0  0  0  0  0  0  0
    0.0001    0.0000    0.0000 C   0  0  0  0  0  0  0  0  0  0  0  0
   -1.3856   -0.8000    0.0000 H   0  0  0  0  0  0  0  0  0  0  0  0
    0.7999   -1.3856    0.0000 C   0  0  0  0  0  0  0  0  0  0  0  0
    1.5999   -2.7713    0.0000 H   0  0  0  0  0  0  0  0  0  0  0  0
    2.4000   -1.3856    0.0000 H   0  0  0  0  0  0  0  0  0  0  0  0
    0.0001   -2.7713    0.0000 H   0  0  0  0  0  0  0  0  0  0  0  0
   -0.8000    1.3856    0.0000 N   0  0  0  0  0  0  0  0  0  0  0  0
    0.0001    2.7713    0.0000 H   0  0  0  0  0  0  0  0  0  0  0  0
   -2.4000    1.3857    0.0000 C   0  0  0  0  0  0  0  0  0  0  0  0
   -3.2000    2.7713    0.0000 N   0  0  0  0  0  0  0  0  0  0  0  0
   -4.8001    2.7713    0.0000 C   0  0  0  0  0  0  0  0  0  0  0  0
   -5.6001    4.1570    0.0000 N   0  0  0  0  0  0  0  0  0  0  0  0
   -4.8001    5.5426    0.0000 H   0  0  0  0  0  0  0  0  0  0  0  0
   -7.2000    4.1570    0.0000 C   0  0  0  0  0  0  0  0  0  0  0  0
   -8.8000    4.1570    0.0000 H   0  0  0  0  0  0  0  0  0  0  0  0
   -8.0000    5.5426    0.0000 H   0  0  0  0  0  0  0  0  0  0  0  0
   -8.0000    2.7713    0.0000 H   0  0  0  0  0  0  0  0  0  0  0  0
   -5.6001    1.3857    0.0000 N   0  0  0  0  0  0  0  0  0  0  0  0
   -4.8001    0.0000    0.0000 C   0  0  0  0  0  0  0  0  0  0  0  0
   -5.6001   -1.3856    0.0000 S   0  0  0  0  0  0  0  0  0  0  0  0
   -7.2000   -1.3856    0.0000 C   0  0  0  0  0  0  0  0  0  0  0  0
   -8.0000   -2.7713    0.0000 H   0  0  0  0  0  0  0  0  0  0  0  0
   -8.8000   -1.3856    0.0000 H   0  0  0  0  0  0  0  0  0  0  0  0
   -6.3999   -2.7713    0.0000 H   0  0  0  0  0  0  0  0  0  0  0  0
   -3.2000    0.0000    0.0000 N   0  0  0  0  0  0  0  0  0  0  0  0
  1  2  1  0  0  0  0
  1  3  1  0  0  0  0
  1  4  1  0  0  0  0
  1  5  1  0  0  0  0
  5  6  1  0  0  0  0
  5  7  1  0  0  0  0
  7  8  1  0  0  0  0
  7  9  1  0  0  0  0
  7 10  1  0  0  0  0
  5 11  1  0  0  0  0
 11 12  1  0  0  0  0
 11 13  1  0  0  0  0
 13 14  1  0  0  0  0
 14 15  2  0  0  0  0
 15 16  1  0  0  0  0
 16 17  1  0  0  0  0
 16 18  1  0  0  0  0
 18 19  1  0  0  0  0
 18 20  1  0  0  0  0
 18 21  1  0  0  0  0
 15 22  1  0  0  0  0
 22 23  2  0  0  0  0
 23 24  1  0  0  0  0
 24 25  1  0  0  0  0
 25 26  1  0  0  0  0
 25 27  1  0  0  0  0
 25 28  1  0  0  0  0
 23 29  1  0  0  0  0
 29 13  2  0  0  0  0
M  END
> <ChemID>
101894

> <source_casrn>
1014-69-3

> <CAS>
1014-69-3

> <SMILES>
CNc1[n]c([n]c(NC(C)C)[n]1)SC

> <NAME>
DESMETRYNE

> <preferred_name>
Desmetryn

> <iupac>
N-methyl-6-(methylsulfanyl)-N'-(propan-2-yl)-1,3,5-triazine-2,4-diamine

> <MPID>
26472

> <dsstox_substance_id>
DTXSID6041842

> <Canonical_QSARr>
CNc1[n]c([n]c(NC(C)C)[n]1)SC

> <InChI_Code_QSARr>
InChI=1S/C8H15N5S/c1-5(2)10-7-11-6(9-3)12-8(13-7)14-4/h5H,1-4H3,(H2,9,10,11,12,13)

> <InChI Key_QSARr>
HCRWJJJUKUVORR-UHFFFAOYSA-N

> <Salt_Solvent>
?

> <LogVP>
-6.0009

$$$$
101900
  -INDIGO-08031723152D

 29 28  0  0  0  0  0  0  0  0999 V2000
    0.0001   -0.0001    0.0000 C   0  0  0  0  0  0  0  0  0  0  0  0
    0.8000    1.3856    0.0000 C   0  0  0  0  0  0  0  0  0  0  0  0
    0.5912    2.9720    0.0000 H   0  0  0  0  0  0  0  0  0  0  0  0
   -0.4694    2.3596    0.0000 H   0  0  0  0  0  0  0  0  0  0  0  0
    2.3757    1.6635    0.0000 C   0  0  0  0  0  0  0  0  0  0  0  0
    3.9514    1.9413    0.0000 H   0  0  0  0  0  0  0  0  0  0  0  0
    2.9229    3.1670    0.0000 H   0  0  0  0  0  0  0  0  0  0  0  0
    3.4042    0.4378    0.0000 H   0  0  0  0  0  0  0  0  0  0  0  0
   -1.3856    0.8000    0.0000 C   0  0  0  0  0  0  0  0  0  0  0  0
   -2.9720    0.5912    0.0000 H   0  0  0  0  0  0  0  0  0  0  0  0
   -2.3596   -0.4694    0.0000 H   0  0  0  0  0  0  0  0  0  0  0  0
   -1.6635    2.3757    0.0000 C   0  0  0  0  0  0  0  0  0  0  0  0
   -1.9413    3.9514    0.0000 H   0  0  0  0  0  0  0  0  0  0  0  0
   -0.4378    3.4042    0.0000 H   0  0  0  0  0  0  0  0  0  0  0  0
   -3.1670    2.9229    0.0000 H   0  0  0  0  0  0  0  0  0  0  0  0
    1.3856   -0.8000    0.0000 C   0  0  0  0  0  0  0  0  0  0  0  0
    2.9720   -0.5912    0.0000 H   0  0  0  0  0  0  0  0  0  0  0  0
    2.3596    0.4694    0.0000 H   0  0  0  0  0  0  0  0  0  0  0  0
    1.6635   -2.3757    0.0000 C   0  0  0  0  0  0  0  0  0  0  0  0
    1.9413   -3.9514    0.0000 H   0  0  0  0  0  0  0  0  0  0  0  0
    3.1670   -2.9229    0.0000 H   0  0  0  0  0  0  0  0  0  0  0  0
    0.4378   -3.4042    0.0000 H   0  0  0  0  0  0  0  0  0  0  0  0
   -0.8000   -1.3856    0.0000 C   0  0  0  0  0  0  0  0  0  0  0  0
   -0.5912   -2.9720    0.0000 H   0  0  0  0  0  0  0  0  0  0  0  0
    0.4694   -2.3596    0.0000 H   0  0  0  0  0  0  0  0  0  0  0  0
   -2.3757   -1.6635    0.0000 C   0  0  0  0  0  0  0  0  0  0  0  0
   -3.9514   -1.9413    0.0000 H   0  0  0  0  0  0  0  0  0  0  0  0
   -2.9229   -3.1670    0.0000 H   0  0  0  0  0  0  0  0  0  0  0  0
   -3.4042   -0.4378    0.0000 H   0  0  0  0  0  0  0  0  0  0  0  0
  1  2  1  0  0  0  0
  2  3  1  0  0  0  0
  2  4  1  0  0  0  0
  2  5  1  0  0  0  0
  5  6  1  0  0  0  0
  5  7  1  0  0  0  0
  5  8  1  0  0  0  0
  1  9  1  0  0  0  0
  9 10  1  0  0  0  0
  9 11  1  0  0  0  0
  9 12  1  0  0  0  0
 12 13  1  0  0  0  0
 12 14  1  0  0  0  0
 12 15  1  0  0  0  0
  1 16  1  0  0  0  0
 16 17  1  0  0  0  0
 16 18  1  0  0  0  0
 16 19  1  0  0  0  0
 19 20  1  0  0  0  0
 19 21  1  0  0  0  0
 19 22  1  0  0  0  0
  1 23  1  0  0  0  0
 23 24  1  0  0  0  0
 23 25  1  0  0  0  0
 23 26  1  0  0  0  0
 26 27  1  0  0  0  0
 26 28  1  0  0  0  0
 26 29  1  0  0  0  0
M  END
> <ChemID>
101900

> <source_casrn>
1067-20-5

> <CAS>
1067-20-5

> <SMILES>
CCC(CC)(CC)CC

> <NAME>
3,3-DIETHYLPENTANE

> <preferred_name>
Pentane, 3,3-diethyl-

> <iupac>
3,3-Diethylpentane

> <MPID>
26476

> <dsstox_substance_id>
DTXSID1073941

> <Canonical_QSARr>
CCC(CC)(CC)CC

> <InChI_Code_QSARr>
InChI=1S/C9H20/c1-5-9(6-2,7-3)8-4/h5-8H2,1-4H3

> <InChI Key_QSARr>
BGXXXYLRPIRDHJ-UHFFFAOYSA-N

> <Salt_Solvent>
?

> <LogVP>
0.8631

$$$$
101904
  -INDIGO-08031723152D

 29 28  0  0  0  0  0  0  0  0999 V2000
    1.5036   -0.5472    0.0000 C   0  0  0  0  0  0  0  0  0  0  0  0
    2.3633   -1.8967    0.0000 H   0  0  0  0  0  0  0  0  0  0  0  0
    1.1572   -2.1093    0.0000 H   0  0  0  0  0  0  0  0  0  0  0  0
    0.0000    0.0000    0.0000 C   0  0  0  0  0  0  0  0  0  0  0  0
   -1.3857    0.8000    0.0000 C   0  0  0  0  0  0  0  0  0  0  0  0
   -2.7713    1.6000    0.0000 H   0  0  0  0  0  0  0  0  0  0  0  0
   -2.7713    0.0000    0.0000 H   0  0  0  0  0  0  0  0  0  0  0  0
   -1.3857    2.4000    0.0000 H   0  0  0  0  0  0  0  0  0  0  0  0
    0.8001    1.3856    0.0000 C   0  0  0  0  0  0  0  0  0  0  0  0
    1.5999    2.7713    0.0000 H   0  0  0  0  0  0  0  0  0  0  0  0
    1.6483    1.6609    0.0000 H   0  0  0  0  0  0  0  0  0  0  0  0
    0.0000    2.7713    0.0000 H   0  0  0  0  0  0  0  0  0  0  0  0
   -0.8000   -1.3856    0.0000 C   0  0  0  0  0  0  0  0  0  0  0  0
   -1.6000   -2.7713    0.0000 H   0  0  0  0  0  0  0  0  0  0  0  0
    0.0000   -2.7713    0.0000 H   0  0  0  0  0  0  0  0  0  0  0  0
   -2.4001   -1.3856    0.0000 H   0  0  0  0  0  0  0  0  0  0  0  0
    2.7292    0.4813    0.0000 C   0  0  0  0  0  0  0  0  0  0  0  0
    2.4241    1.3192    0.0000 H   0  0  0  0  0  0  0  0  0  0  0  0
    3.0755    2.0433    0.0000 H   0  0  0  0  0  0  0  0  0  0  0  0
    4.2327   -0.0660    0.0000 C   0  0  0  0  0  0  0  0  0  0  0  0
    5.0924   -1.4154    0.0000 H   0  0  0  0  0  0  0  0  0  0  0  0
    3.8864   -1.6281    0.0000 H   0  0  0  0  0  0  0  0  0  0  0  0
    5.4583    0.9625    0.0000 C   0  0  0  0  0  0  0  0  0  0  0  0
    4.5986    2.3119    0.0000 H   0  0  0  0  0  0  0  0  0  0  0  0
    5.8047    2.5245    0.0000 H   0  0  0  0  0  0  0  0  0  0  0  0
    6.9618    0.4152    0.0000 C   0  0  0  0  0  0  0  0  0  0  0  0
    8.4654   -0.1320    0.0000 H   0  0  0  0  0  0  0  0  0  0  0  0
    8.1876    1.4437    0.0000 H   0  0  0  0  0  0  0  0  0  0  0  0
    7.2398   -1.1605    0.0000 H   0  0  0  0  0  0  0  0  0  0  0  0
  1  2  1  0  0  0  0
  1  3  1  0  0  0  0
  1  4  1  0  0  0  0
  4  5  1  0  0  0  0
  5  6  1  0  0  0  0
  5  7  1  0  0  0  0
  5  8  1  0  0  0  0
  4  9  1  0  0  0  0
  9 10  1  0  0  0  0
  9 11  1  0  0  0  0
  9 12  1  0  0  0  0
  4 13  1  0  0  0  0
 13 14  1  0  0  0  0
 13 15  1  0  0  0  0
 13 16  1  0  0  0  0
  1 17  1  0  0  0  0
 17 18  1  0  0  0  0
 17 19  1  0  0  0  0
 17 20  1  0  0  0  0
 20 21  1  0  0  0  0
 20 22  1  0  0  0  0
 20 23  1  0  0  0  0
 23 24  1  0  0  0  0
 23 25  1  0  0  0  0
 23 26  1  0  0  0  0
 26 27  1  0  0  0  0
 26 28  1  0  0  0  0
 26 29  1  0  0  0  0
M  END
> <ChemID>
101904

> <source_casrn>
1071-26-7

> <CAS>
1071-26-7

> <SMILES>
CCCCCC(C)(C)C

> <NAME>
2,2-DIMETHYLHEPTANE

> <preferred_name>
2,2-Dimethylheptane

> <iupac>
2,2-Dimethylheptane

> <MPID>
26480

> <dsstox_substance_id>
DTXSID0061454

> <Canonical_QSARr>
CCCCCC(C)(C)C

> <InChI_Code_QSARr>
InChI=1S/C9H20/c1-5-6-7-8-9(2,3)4/h5-8H2,1-4H3

> <InChI Key_QSARr>
PSABUFWDVWCFDP-UHFFFAOYSA-N

> <Salt_Solvent>
?

> <LogVP>
1.0322

$$$$
101908
  -INDIGO-08031723152D

 24 24  0  0  0  0  0  0  0  0999 V2000
   -1.6000    0.0000    0.0000 C   0  0  0  0  0  0  0  0  0  0  0  0
   -2.4000    1.3857    0.0000 C   0  0  0  0  0  0  0  0  0  0  0  0
   -1.6000    2.7713    0.0000 C   0  0  0  0  0  0  0  0  0  0  0  0
   -0.8000    4.1569    0.0000 H   0  0  0  0  0  0  0  0  0  0  0  0
   -2.4000    4.1569    0.0000 H   0  0  0  0  0  0  0  0  0  0  0  0
   -0.0000    2.7713    0.0000 H   0  0  0  0  0  0  0  0  0  0  0  0
   -4.0001    1.3857    0.0000 C   0  0  0  0  0  0  0  0  0  0  0  0
   -4.8000    2.7713    0.0000 H   0  0  0  0  0  0  0  0  0  0  0  0
   -4.8000    0.0000    0.0000 C   0  0  0  0  0  0  0  0  0  0  0  0
   -6.4000    0.0000    0.0000 H   0  0  0  0  0  0  0  0  0  0  0  0
   -4.0001   -1.3856    0.0000 C   0  0  0  0  0  0  0  0  0  0  0  0
   -4.8000   -2.7713    0.0000 H   0  0  0  0  0  0  0  0  0  0  0  0
   -2.4000   -1.3856    0.0000 C   0  0  0  0  0  0  0  0  0  0  0  0
   -1.6000   -2.7713    0.0000 H   0  0  0  0  0  0  0  0  0  0  0  0
   -0.0000    0.0000    0.0000 C   0  0  0  0  0  0  0  0  0  0  0  0
    0.2088    1.5864    0.0000 H   0  0  0  0  0  0  0  0  0  0  0  0
    1.2694    0.9740    0.0000 H   0  0  0  0  0  0  0  0  0  0  0  0
    0.7999   -1.3856    0.0000 C   0  0  0  0  0  0  0  0  0  0  0  0
    0.5911   -2.9720    0.0000 H   0  0  0  0  0  0  0  0  0  0  0  0
   -0.4693   -2.3596    0.0000 H   0  0  0  0  0  0  0  0  0  0  0  0
    2.4000   -1.3856    0.0000 C   0  0  0  0  0  0  0  0  0  0  0  0
    4.0000   -1.3856    0.0000 H   0  0  0  0  0  0  0  0  0  0  0  0
    3.2000   -2.7713    0.0000 H   0  0  0  0  0  0  0  0  0  0  0  0
    3.2000    0.0000    0.0000 H   0  0  0  0  0  0  0  0  0  0  0  0
  1  2  1  0  0  0  0
  2  3  1  0  0  0  0
  3  4  1  0  0  0  0
  3  5  1  0  0  0  0
  3  6  1  0  0  0  0
  2  7  2  0  0  0  0
  7  8  1  0  0  0  0
  7  9  1  0  0  0  0
  9 10  1  0  0  0  0
  9 11  2  0  0  0  0
 11 12  1  0  0  0  0
 11 13  1  0  0  0  0
 13  1  2  0  0  0  0
 13 14  1  0  0  0  0
  1 15  1  0  0  0  0
 15 16  1  0  0  0  0
 15 17  1  0  0  0  0
 15 18  1  0  0  0  0
 18 19  1  0  0  0  0
 18 20  1  0  0  0  0
 18 21  1  0  0  0  0
 21 22  1  0  0  0  0
 21 23  1  0  0  0  0
 21 24  1  0  0  0  0
M  END
> <ChemID>
101908

> <source_casrn>
1074-17-5

> <CAS>
1074-17-5

> <SMILES>
Cc1ccccc1CCC

> <NAME>
1-METHYL-2-PROPYLBENZENE

> <preferred_name>
1-Methyl-2-propylbenzene

> <iupac>
1-Methyl-2-propylbenzene

> <MPID>
26484

> <dsstox_substance_id>
DTXSID4061466

> <Canonical_QSARr>
Cc1ccccc1CCC

> <InChI_Code_QSARr>
InChI=1S/C10H14/c1-3-6-10-8-5-4-7-9(10)2/h4-5,7-8H,3,6H2,1-2H3

> <InChI Key_QSARr>
YQZBFMJOASEONC-UHFFFAOYSA-N

> <Salt_Solvent>
?

> <LogVP>
-0.0027

$$$$
101912
  -INDIGO-08031723152D

 33 33  0  0  0  0  0  0  0  0999 V2000
   -4.1570   -0.8000    0.0000 C   0  0  0  0  0  0  0  0  0  0  0  0
   -2.7713   -0.0000    0.0000 C   0  0  0  0  0  0  0  0  0  0  0  0
   -2.1589    1.4782    0.0000 H   0  0  0  0  0  0  0  0  0  0  0  0
   -3.3836    1.4782    0.0000 H   0  0  0  0  0  0  0  0  0  0  0  0
   -1.3856   -0.8000    0.0000 C   0  0  0  0  0  0  0  0  0  0  0  0
   -1.9979   -2.2782    0.0000 H   0  0  0  0  0  0  0  0  0  0  0  0
   -0.7734   -2.2782    0.0000 H   0  0  0  0  0  0  0  0  0  0  0  0
   -0.0001   -0.0000    0.0000 C   0  0  0  0  0  0  0  0  0  0  0  0
    0.6123    1.4782    0.0000 H   0  0  0  0  0  0  0  0  0  0  0  0
   -0.6122    1.4782    0.0000 H   0  0  0  0  0  0  0  0  0  0  0  0
    1.3856   -0.8000    0.0000 C   0  0  0  0  0  0  0  0  0  0  0  0
    0.7732   -2.2782    0.0000 H   0  0  0  0  0  0  0  0  0  0  0  0
    1.9980   -2.2782    0.0000 H   0  0  0  0  0  0  0  0  0  0  0  0
    2.7713   -0.0000    0.0000 C   0  0  0  0  0  0  0  0  0  0  0  0
    3.3835    1.4782    0.0000 H   0  0  0  0  0  0  0  0  0  0  0  0
    2.1589    1.4782    0.0000 H   0  0  0  0  0  0  0  0  0  0  0  0
    4.1570   -0.8000    0.0000 C   0  0  0  0  0  0  0  0  0  0  0  0
    3.5446   -2.2782    0.0000 H   0  0  0  0  0  0  0  0  0  0  0  0
    4.7692   -2.2782    0.0000 H   0  0  0  0  0  0  0  0  0  0  0  0
    5.5425   -0.0000    0.0000 C   0  0  0  0  0  0  0  0  0  0  0  0
    6.9282    0.8000    0.0000 H   0  0  0  0  0  0  0  0  0  0  0  0
    6.9282   -0.8000    0.0000 H   0  0  0  0  0  0  0  0  0  0  0  0
    5.5425    1.6000    0.0000 H   0  0  0  0  0  0  0  0  0  0  0  0
   -4.1570   -2.4000    0.0000 C   0  0  0  0  0  0  0  0  0  0  0  0
   -2.7713   -3.2000    0.0000 H   0  0  0  0  0  0  0  0  0  0  0  0
   -5.5427   -3.2000    0.0000 C   0  0  0  0  0  0  0  0  0  0  0  0
   -5.5427   -4.8000    0.0000 H   0  0  0  0  0  0  0  0  0  0  0  0
   -6.9281   -2.4000    0.0000 C   0  0  0  0  0  0  0  0  0  0  0  0
   -8.3138   -3.2000    0.0000 H   0  0  0  0  0  0  0  0  0  0  0  0
   -6.9281   -0.8000    0.0000 C   0  0  0  0  0  0  0  0  0  0  0  0
   -8.3138   -0.0000    0.0000 H   0  0  0  0  0  0  0  0  0  0  0  0
   -5.5427   -0.0000    0.0000 C   0  0  0  0  0  0  0  0  0  0  0  0
   -5.5427    1.6000    0.0000 H   0  0  0  0  0  0  0  0  0  0  0  0
  1  2  1  0  0  0  0
  2  3  1  0  0  0  0
  2  4  1  0  0  0  0
  2  5  1  0  0  0  0
  5  6  1  0  0  0  0
  5  7  1  0  0  0  0
  5  8  1  0  0  0  0
  8  9  1  0  0  0  0
  8 10  1  0  0  0  0
  8 11  1  0  0  0  0
 11 12  1  0  0  0  0
 11 13  1  0  0  0  0
 11 14  1  0  0  0  0
 14 15  1  0  0  0  0
 14 16  1  0  0  0  0
 14 17  1  0  0  0  0
 17 18  1  0  0  0  0
 17 19  1  0  0  0  0
 17 20  1  0  0  0  0
 20 21  1  0  0  0  0
 20 22  1  0  0  0  0
 20 23  1  0  0  0  0
  1 24  1  0  0  0  0
 24 25  1  0  0  0  0
 24 26  2  0  0  0  0
 26 27  1  0  0  0  0
 26 28  1  0  0  0  0
 28 29  1  0  0  0  0
 28 30  2  0  0  0  0
 30 31  1  0  0  0  0
 30 32  1  0  0  0  0
 32  1  2  0  0  0  0
 32 33  1  0  0  0  0
M  END
> <ChemID>
101912

> <source_casrn>
1078-71-3

> <CAS>
1078-71-3

> <SMILES>
CCCCCCCc1ccccc1

> <NAME>
1-PHENYLHEPTANE

> <preferred_name>
Heptylbenzene

> <iupac>
Heptylbenzene

> <MPID>
26488

> <dsstox_substance_id>
DTXSID3061477

> <Canonical_QSARr>
CCCCCCCc1ccccc1

> <InChI_Code_QSARr>
InChI=1S/C13H20/c1-2-3-4-5-7-10-13-11-8-6-9-12-13/h6,8-9,11-12H,2-5,7,10H2,1H3

> <InChI Key_QSARr>
LBNXAWYDQUGHGX-UHFFFAOYSA-N

> <Salt_Solvent>
?

> <LogVP>
-1.5086

$$$$
101916
  -INDIGO-08031723152D

 34 33  0  0  0  0  0  0  0  0999 V2000
   -1.6000   -2.7713    0.0000 O   0  0  0  0  0  0  0  0  0  0  0  0
   -2.4000   -1.3857    0.0000 C   0  0  0  0  0  0  0  0  0  0  0  0
   -1.6000   -0.0000    0.0000 N   0  0  0  0  0  0  0  0  0  0  0  0
    0.0000   -0.0000    0.0000 C   0  0  0  0  0  0  0  0  0  0  0  0
    1.2694    0.9740    0.0000 H   0  0  0  0  0  0  0  0  0  0  0  0
    0.2088    1.5863    0.0000 H   0  0  0  0  0  0  0  0  0  0  0  0
    0.8000   -1.3857    0.0000 C   0  0  0  0  0  0  0  0  0  0  0  0
   -0.4694   -2.3597    0.0000 H   0  0  0  0  0  0  0  0  0  0  0  0
    0.5912   -2.9719    0.0000 H   0  0  0  0  0  0  0  0  0  0  0  0
    2.4000   -1.3857    0.0000 C   0  0  0  0  0  0  0  0  0  0  0  0
    3.6694   -0.4116    0.0000 H   0  0  0  0  0  0  0  0  0  0  0  0
    2.6088    0.2007    0.0000 H   0  0  0  0  0  0  0  0  0  0  0  0
    3.2000   -2.7713    0.0000 C   0  0  0  0  0  0  0  0  0  0  0  0
    4.0000   -4.1569    0.0000 H   0  0  0  0  0  0  0  0  0  0  0  0
    4.8000   -2.7713    0.0000 H   0  0  0  0  0  0  0  0  0  0  0  0
    2.4000   -4.1569    0.0000 H   0  0  0  0  0  0  0  0  0  0  0  0
   -2.4000    1.3856    0.0000 C   0  0  0  0  0  0  0  0  0  0  0  0
   -1.1306    2.3596    0.0000 H   0  0  0  0  0  0  0  0  0  0  0  0
   -2.1912    2.9720    0.0000 H   0  0  0  0  0  0  0  0  0  0  0  0
   -4.0000    1.3856    0.0000 C   0  0  0  0  0  0  0  0  0  0  0  0
   -4.8000    2.7712    0.0000 H   0  0  0  0  0  0  0  0  0  0  0  0
   -5.6000    1.3856    0.0000 H   0  0  0  0  0  0  0  0  0  0  0  0
   -3.2000    2.7712    0.0000 H   0  0  0  0  0  0  0  0  0  0  0  0
   -4.0000   -1.3857    0.0000 S   0  0  0  0  0  0  0  0  0  0  0  0
   -4.8000   -2.7713    0.0000 C   0  0  0  0  0  0  0  0  0  0  0  0
   -4.5912   -4.3575    0.0000 H   0  0  0  0  0  0  0  0  0  0  0  0
   -3.5306   -3.7453    0.0000 H   0  0  0  0  0  0  0  0  0  0  0  0
   -6.4000   -2.7713    0.0000 C   0  0  0  0  0  0  0  0  0  0  0  0
   -6.6088   -1.1849    0.0000 H   0  0  0  0  0  0  0  0  0  0  0  0
   -7.6694   -1.7973    0.0000 H   0  0  0  0  0  0  0  0  0  0  0  0
   -7.2000   -4.1569    0.0000 C   0  0  0  0  0  0  0  0  0  0  0  0
   -8.0000   -5.5426    0.0000 H   0  0  0  0  0  0  0  0  0  0  0  0
   -8.8000   -4.1569    0.0000 H   0  0  0  0  0  0  0  0  0  0  0  0
   -6.4000   -5.5426    0.0000 H   0  0  0  0  0  0  0  0  0  0  0  0
  1  2  2  0  0  0  0
  2  3  1  0  0  0  0
  3  4  1  0  0  0  0
  4  5  1  0  0  0  0
  4  6  1  0  0  0  0
  4  7  1  0  0  0  0
  7  8  1  0  0  0  0
  7  9  1  0  0  0  0
  7 10  1  0  0  0  0
 10 11  1  0  0  0  0
 10 12  1  0  0  0  0
 10 13  1  0  0  0  0
 13 14  1  0  0  0  0
 13 15  1  0  0  0  0
 13 16  1  0  0  0  0
  3 17  1  0  0  0  0
 17 18  1  0  0  0  0
 17 19  1  0  0  0  0
 17 20  1  0  0  0  0
 20 21  1  0  0  0  0
 20 22  1  0  0  0  0
 20 23  1  0  0  0  0
  2 24  1  0  0  0  0
 24 25  1  0  0  0  0
 25 26  1  0  0  0  0
 25 27  1  0  0  0  0
 25 28  1  0  0  0  0
 28 29  1  0  0  0  0
 28 30  1  0  0  0  0
 28 31  1  0  0  0  0
 31 32  1  0  0  0  0
 31 33  1  0  0  0  0
 31 34  1  0  0  0  0
M  END
> <ChemID>
101916

> <source_casrn>
1114-71-2

> <CAS>
1114-71-2

> <SMILES>
CCN(CCCC)C(=O)SCCC

> <NAME>
PEBULATE

> <preferred_name>
Pebulate

> <iupac>
S-propyl butyl(ethyl)carbamothioate

> <MPID>
26492

> <dsstox_substance_id>
DTXSID8021199

> <Canonical_QSARr>
CCN(CCCC)C(=O)SCCC

> <InChI_Code_QSARr>
InChI=1S/C10H21NOS/c1-4-7-8-11(6-3)10(12)13-9-5-2/h4-9H2,1-3H3

> <InChI Key_QSARr>
SGEJQUSYQTVSIU-UHFFFAOYSA-N

> <Salt_Solvent>
?

> <LogVP>
-1.0531

$$$$
101920
  -INDIGO-08031723152D

 35 34  0  0  0  0  0  0  0  0999 V2000
    6.9283    0.8000    0.0000 C   0  0  0  0  0  0  0  0  0  0  0  0
    8.3138    1.6000    0.0000 H   0  0  0  0  0  0  0  0  0  0  0  0
    8.3138    0.0000    0.0000 H   0  0  0  0  0  0  0  0  0  0  0  0
    6.9283    2.4000    0.0000 H   0  0  0  0  0  0  0  0  0  0  0  0
    5.5427    0.0000    0.0000 C   0  0  0  0  0  0  0  0  0  0  0  0
    6.1549   -1.4782    0.0000 H   0  0  0  0  0  0  0  0  0  0  0  0
    4.9302   -1.4782    0.0000 H   0  0  0  0  0  0  0  0  0  0  0  0
    4.1569    0.8000    0.0000 C   0  0  0  0  0  0  0  0  0  0  0  0
    3.5446    2.2782    0.0000 H   0  0  0  0  0  0  0  0  0  0  0  0
    4.7691    2.2782    0.0000 H   0  0  0  0  0  0  0  0  0  0  0  0
    2.7713    0.0000    0.0000 C   0  0  0  0  0  0  0  0  0  0  0  0
    3.3835   -1.4782    0.0000 H   0  0  0  0  0  0  0  0  0  0  0  0
    2.1590   -1.4782    0.0000 H   0  0  0  0  0  0  0  0  0  0  0  0
    1.3857    0.8000    0.0000 C   0  0  0  0  0  0  0  0  0  0  0  0
    0.7735    2.2782    0.0000 H   0  0  0  0  0  0  0  0  0  0  0  0
    1.9979    2.2782    0.0000 H   0  0  0  0  0  0  0  0  0  0  0  0
    0.0001    0.0000    0.0000 C   0  0  0  0  0  0  0  0  0  0  0  0
    0.6124   -1.4782    0.0000 H   0  0  0  0  0  0  0  0  0  0  0  0
   -0.6124   -1.4782    0.0000 H   0  0  0  0  0  0  0  0  0  0  0  0
   -1.3857    0.8000    0.0000 C   0  0  0  0  0  0  0  0  0  0  0  0
   -1.9979    2.2782    0.0000 H   0  0  0  0  0  0  0  0  0  0  0  0
   -0.7735    2.2782    0.0000 H   0  0  0  0  0  0  0  0  0  0  0  0
   -2.7713    0.0000    0.0000 C   0  0  0  0  0  0  0  0  0  0  0  0
   -2.1590   -1.4782    0.0000 H   0  0  0  0  0  0  0  0  0  0  0  0
   -3.3835   -1.4782    0.0000 H   0  0  0  0  0  0  0  0  0  0  0  0
   -4.1569    0.8000    0.0000 C   0  0  0  0  0  0  0  0  0  0  0  0
   -4.7691    2.2782    0.0000 H   0  0  0  0  0  0  0  0  0  0  0  0
   -3.5446    2.2782    0.0000 H   0  0  0  0  0  0  0  0  0  0  0  0
   -5.5427    0.0000    0.0000 C   0  0  0  0  0  0  0  0  0  0  0  0
   -4.9302   -1.4782    0.0000 H   0  0  0  0  0  0  0  0  0  0  0  0
   -6.1549   -1.4782    0.0000 H   0  0  0  0  0  0  0  0  0  0  0  0
   -6.9283    0.8000    0.0000 C   0  0  0  0  0  0  0  0  0  0  0  0
   -8.3138    1.6000    0.0000 H   0  0  0  0  0  0  0  0  0  0  0  0
   -8.3138    0.0000    0.0000 H   0  0  0  0  0  0  0  0  0  0  0  0
   -6.9283    2.4000    0.0000 H   0  0  0  0  0  0  0  0  0  0  0  0
  1  2  1  0  0  0  0
  1  3  1  0  0  0  0
  1  4  1  0  0  0  0
  1  5  1  0  0  0  0
  5  6  1  0  0  0  0
  5  7  1  0  0  0  0
  5  8  1  0  0  0  0
  8  9  1  0  0  0  0
  8 10  1  0  0  0  0
  8 11  1  0  0  0  0
 11 12  1  0  0  0  0
 11 13  1  0  0  0  0
 11 14  1  0  0  0  0
 14 15  1  0  0  0  0
 14 16  1  0  0  0  0
 14 17  1  0  0  0  0
 17 18  1  0  0  0  0
 17 19  1  0  0  0  0
 17 20  1  0  0  0  0
 20 21  1  0  0  0  0
 20 22  1  0  0  0  0
 20 23  1  0  0  0  0
 23 24  1  0  0  0  0
 23 25  1  0  0  0  0
 23 26  1  0  0  0  0
 26 27  1  0  0  0  0
 26 28  1  0  0  0  0
 26 29  1  0  0  0  0
 29 30  1  0  0  0  0
 29 31  1  0  0  0  0
 29 32  1  0  0  0  0
 32 33  1  0  0  0  0
 32 34  1  0  0  0  0
 32 35  1  0  0  0  0
M  END
> <ChemID>
101920

> <source_casrn>
1120-21-4

> <CAS>
1120-21-4

> <SMILES>
CCCCCCCCCCC

> <NAME>
N-UNDECANE

> <preferred_name>
Undecane

> <iupac>
C11H24

> <MPID>
26496

> <dsstox_substance_id>
DTXSID9021689

> <Canonical_QSARr>
CCCCCCCCCCC

> <InChI_Code_QSARr>
InChI=1S/C11H24/c1-3-5-7-9-11-10-8-6-4-2/h3-11H2,1-2H3

> <InChI Key_QSARr>
RSJKGSCJYJTIGS-UHFFFAOYSA-N

> <Salt_Solvent>
?

> <LogVP>
-0.3852

$$$$
101924
  -INDIGO-08031723152D

 24 25  0  0  0  0  0  0  0  0999 V2000
   -1.6000   -0.0000    0.0000 C   0  0  0  0  0  0  0  0  0  0  0  0
   -2.4000    1.3856    0.0000 C   0  0  0  0  0  0  0  0  0  0  0  0
   -1.6000    2.7713    0.0000 H   0  0  0  0  0  0  0  0  0  0  0  0
   -4.0001    1.3856    0.0000 C   0  0  0  0  0  0  0  0  0  0  0  0
   -4.8000    2.7713    0.0000 H   0  0  0  0  0  0  0  0  0  0  0  0
   -4.8000   -0.0000    0.0000 C   0  0  0  0  0  0  0  0  0  0  0  0
   -6.4000   -0.0000    0.0000 H   0  0  0  0  0  0  0  0  0  0  0  0
   -4.0001   -1.3857    0.0000 C   0  0  0  0  0  0  0  0  0  0  0  0
   -4.8000   -2.7713    0.0000 H   0  0  0  0  0  0  0  0  0  0  0  0
   -2.4000   -1.3857    0.0000 C   0  0  0  0  0  0  0  0  0  0  0  0
   -1.6000   -2.7713    0.0000 C   0  0  0  0  0  0  0  0  0  0  0  0
   -2.4000   -4.1569    0.0000 H   0  0  0  0  0  0  0  0  0  0  0  0
   -0.0000   -2.7713    0.0000 C   0  0  0  0  0  0  0  0  0  0  0  0
    0.7999   -4.1569    0.0000 H   0  0  0  0  0  0  0  0  0  0  0  0
    0.7999   -1.3857    0.0000 C   0  0  0  0  0  0  0  0  0  0  0  0
    2.4000   -1.3857    0.0000 H   0  0  0  0  0  0  0  0  0  0  0  0
   -0.0000   -0.0000    0.0000 C   0  0  0  0  0  0  0  0  0  0  0  0
    0.7999    1.3856    0.0000 C   0  0  0  0  0  0  0  0  0  0  0  0
   -0.4693    2.3596    0.0000 H   0  0  0  0  0  0  0  0  0  0  0  0
    0.5911    2.9720    0.0000 H   0  0  0  0  0  0  0  0  0  0  0  0
    2.4000    1.3856    0.0000 C   0  0  0  0  0  0  0  0  0  0  0  0
    4.0000    1.3856    0.0000 H   0  0  0  0  0  0  0  0  0  0  0  0
    3.2000    2.7713    0.0000 H   0  0  0  0  0  0  0  0  0  0  0  0
    3.2000   -0.0000    0.0000 H   0  0  0  0  0  0  0  0  0  0  0  0
  1  2  1  0  0  0  0
  2  3  1  0  0  0  0
  2  4  2  0  0  0  0
  4  5  1  0  0  0  0
  4  6  1  0  0  0  0
  6  7  1  0  0  0  0
  6  8  2  0  0  0  0
  8  9  1  0  0  0  0
  8 10  1  0  0  0  0
 10  1  1  0  0  0  0
 10 11  2  0  0  0  0
 11 12  1  0  0  0  0
 11 13  1  0  0  0  0
 13 14  1  0  0  0  0
 13 15  2  0  0  0  0
 15 16  1  0  0  0  0
 15 17  1  0  0  0  0
 17  1  2  0  0  0  0
 17 18  1  0  0  0  0
 18 19  1  0  0  0  0
 18 20  1  0  0  0  0
 18 21  1  0  0  0  0
 21 22  1  0  0  0  0
 21 23  1  0  0  0  0
 21 24  1  0  0  0  0
M  END
> <ChemID>
101924

> <source_casrn>
1127-76-0

> <CAS>
1127-76-0

> <SMILES>
CCc1cccc2ccccc21

> <NAME>
1-ETHYLNAPHTHALENE

> <preferred_name>


> <iupac>


> <MPID>
26500

> <dsstox_substance_id>
DTXSID10870852

> <Canonical_QSARr>
CCc1cccc2ccccc21

> <InChI_Code_QSARr>
InChI=1S/C12H12/c1-2-10-7-5-8-11-6-3-4-9-12(10)11/h3-9H,2H2,1H3

> <InChI Key_QSARr>
ZMXIYERNXPIYFR-UHFFFAOYSA-N

> <Salt_Solvent>
?

> <LogVP>
-1.5988

$$$$
101928
  -INDIGO-08031723152D

 29 28  0  0  0  0  0  0  0  0999 V2000
   -0.0001   -1.6000    0.0000 C   0  0  0  0  0  0  0  0  0  0  0  0
   -0.0001   -3.2000    0.0000 H   0  0  0  0  0  0  0  0  0  0  0  0
   -1.3857   -2.4000    0.0000 H   0  0  0  0  0  0  0  0  0  0  0  0
    0.4922   -2.3757    0.0000 H   0  0  0  0  0  0  0  0  0  0  0  0
   -0.0001   -0.0000    0.0000 C   0  0  0  0  0  0  0  0  0  0  0  0
    1.6000   -0.0000    0.0000 C   0  0  0  0  0  0  0  0  0  0  0  0
    1.3221    1.5756    0.0000 H   0  0  0  0  0  0  0  0  0  0  0  0
    3.1758    0.2778    0.0000 C   0  0  0  0  0  0  0  0  0  0  0  0
    3.4535   -1.2979    0.0000 H   0  0  0  0  0  0  0  0  0  0  0  0
    4.7757    0.2778    0.0000 C   0  0  0  0  0  0  0  0  0  0  0  0
    6.3757    0.2778    0.0000 H   0  0  0  0  0  0  0  0  0  0  0  0
    5.5757    1.6635    0.0000 H   0  0  0  0  0  0  0  0  0  0  0  0
    5.5757   -1.1078    0.0000 H   0  0  0  0  0  0  0  0  0  0  0  0
    2.8978    1.8535    0.0000 C   0  0  0  0  0  0  0  0  0  0  0  0
    2.6201    3.4292    0.0000 H   0  0  0  0  0  0  0  0  0  0  0  0
    4.1235    2.8820    0.0000 H   0  0  0  0  0  0  0  0  0  0  0  0
    4.4014    1.3063    0.0000 H   0  0  0  0  0  0  0  0  0  0  0  0
    1.8778   -1.5756    0.0000 C   0  0  0  0  0  0  0  0  0  0  0  0
    1.8778   -3.1757    0.0000 H   0  0  0  0  0  0  0  0  0  0  0  0
    3.2634   -2.3757    0.0000 H   0  0  0  0  0  0  0  0  0  0  0  0
    1.4069   -2.3645    0.0000 H   0  0  0  0  0  0  0  0  0  0  0  0
   -1.6000   -0.0000    0.0000 C   0  0  0  0  0  0  0  0  0  0  0  0
   -3.2000   -0.0000    0.0000 H   0  0  0  0  0  0  0  0  0  0  0  0
   -2.4000    1.3857    0.0000 H   0  0  0  0  0  0  0  0  0  0  0  0
   -2.4000   -1.3857    0.0000 H   0  0  0  0  0  0  0  0  0  0  0  0
   -0.2778    1.5756    0.0000 C   0  0  0  0  0  0  0  0  0  0  0  0
   -0.5557    3.1513    0.0000 H   0  0  0  0  0  0  0  0  0  0  0  0
   -1.7814    2.1229    0.0000 H   0  0  0  0  0  0  0  0  0  0  0  0
    0.9478    2.6042    0.0000 H   0  0  0  0  0  0  0  0  0  0  0  0
  1  2  1  0  0  0  0
  1  3  1  0  0  0  0
  1  4  1  0  0  0  0
  1  5  1  0  0  0  0
  5  6  1  0  0  0  0
  6  7  1  0  0  0  0
  6  8  1  0  0  0  0
  8  9  1  0  0  0  0
  8 10  1  0  0  0  0
 10 11  1  0  0  0  0
 10 12  1  0  0  0  0
 10 13  1  0  0  0  0
  8 14  1  0  0  0  0
 14 15  1  0  0  0  0
 14 16  1  0  0  0  0
 14 17  1  0  0  0  0
  6 18  1  0  0  0  0
 18 19  1  0  0  0  0
 18 20  1  0  0  0  0
 18 21  1  0  0  0  0
  5 22  1  0  0  0  0
 22 23  1  0  0  0  0
 22 24  1  0  0  0  0
 22 25  1  0  0  0  0
  5 26  1  0  0  0  0
 26 27  1  0  0  0  0
 26 28  1  0  0  0  0
 26 29  1  0  0  0  0
M  END
> <ChemID>
101928

> <source_casrn>
1186-53-4

> <CAS>
NOCAS_870854

> <SMILES>
CC(C)C(C)C(C)(C)C

> <NAME>
2,2,3,4-TETRAMETHYLPENTANE

> <preferred_name>


> <iupac>


> <MPID>
26504

> <dsstox_substance_id>
DTXSID30870854

> <Canonical_QSARr>
CC(C)C(C)C(C)(C)C

> <InChI_Code_QSARr>
InChI=1S/C9H20/c1-7(2)8(3)9(4,5)6/h7-8H,1-6H3

> <InChI Key_QSARr>
VZFMYOCAEQDWDY-UHFFFAOYSA-N

> <Salt_Solvent>
?

> <LogVP>
1.1014

$$$$
101932
  -INDIGO-08031723152D

 11 11  0  0  0  0  0  0  0  0999 V2000
    2.5747   -0.2706    0.0000 O   0  0  0  0  0  0  0  0  0  0  0  0
    2.2420    1.2945    0.0000 C   0  0  0  0  0  0  0  0  0  0  0  0
    3.3126    2.4834    0.0000 H   0  0  0  0  0  0  0  0  0  0  0  0
    0.6508    1.4616    0.0000 C   0  0  0  0  0  0  0  0  0  0  0  0
   -0.1492    2.8473    0.0000 H   0  0  0  0  0  0  0  0  0  0  0  0
    0.0000    0.0000    0.0000 C   0  0  0  0  0  0  0  0  0  0  0  0
   -1.3856    0.8000    0.0000 H   0  0  0  0  0  0  0  0  0  0  0  0
   -0.9404   -1.2944    0.0000 H   0  0  0  0  0  0  0  0  0  0  0  0
    1.1891   -1.0706    0.0000 C   0  0  0  0  0  0  0  0  0  0  0  0
    0.0000   -2.1412    0.0000 H   0  0  0  0  0  0  0  0  0  0  0  0
    2.1295   -2.3650    0.0000 H   0  0  0  0  0  0  0  0  0  0  0  0
  1  2  1  0  0  0  0
  2  3  1  0  0  0  0
  2  4  2  0  0  0  0
  4  5  1  0  0  0  0
  4  6  1  0  0  0  0
  6  7  1  0  0  0  0
  6  8  1  0  0  0  0
  6  9  1  0  0  0  0
  9  1  1  0  0  0  0
  9 10  1  0  0  0  0
  9 11  1  0  0  0  0
M  END
> <ChemID>
101932

> <source_casrn>
1191-99-7

> <CAS>
1191-99-7

> <SMILES>
C1COC=C1

> <NAME>
Furan, 2,3-dihydro-

> <preferred_name>
Furan, 2,3-dihydro-

> <iupac>
2,3-Dihydrofuran

> <MPID>
26508

> <dsstox_substance_id>
DTXSID9061594

> <Canonical_QSARr>
C1COC=C1

> <InChI_Code_QSARr>
InChI=1S/C4H6O/c1-2-4-5-3-1/h1,3H,2,4H2

> <InChI Key_QSARr>
JKTCBAGSMQIFNL-UHFFFAOYSA-N

> <Salt_Solvent>
?

> <LogVP>
2.3979

$$$$
101937
  -INDIGO-08031723152D

 23 24  0  0  0  0  0  0  0  0999 V2000
   -0.0001   -0.0001    0.0000 C   0  0  0  0  0  0  0  0  0  0  0  0
    1.3857    0.8000    0.0000 C   0  0  0  0  0  0  0  0  0  0  0  0
    1.3857    2.4000    0.0000 C   0  0  0  0  0  0  0  0  0  0  0  0
    1.3857    4.0000    0.0000 H   0  0  0  0  0  0  0  0  0  0  0  0
    2.7713    3.1999    0.0000 H   0  0  0  0  0  0  0  0  0  0  0  0
   -0.0001    3.1999    0.0000 H   0  0  0  0  0  0  0  0  0  0  0  0
    2.7713    0.0001    0.0000 C   0  0  0  0  0  0  0  0  0  0  0  0
    4.1569    0.8000    0.0000 H   0  0  0  0  0  0  0  0  0  0  0  0
    2.7713   -1.5999    0.0000 C   0  0  0  0  0  0  0  0  0  0  0  0
    4.1569   -2.4000    0.0000 C   0  0  0  0  0  0  0  0  0  0  0  0
    5.5426   -3.1999    0.0000 H   0  0  0  0  0  0  0  0  0  0  0  0
    4.1569   -4.0000    0.0000 H   0  0  0  0  0  0  0  0  0  0  0  0
    5.5426   -1.6001    0.0000 H   0  0  0  0  0  0  0  0  0  0  0  0
    1.3857   -2.4000    0.0000 N   0  0  0  0  0  0  0  0  0  0  0  0
   -0.0001   -1.5999    0.0000 C   0  0  0  0  0  0  0  0  0  0  0  0
   -1.3857   -2.4000    0.0000 C   0  0  0  0  0  0  0  0  0  0  0  0
   -1.3857   -4.0000    0.0000 H   0  0  0  0  0  0  0  0  0  0  0  0
   -2.7713   -1.5999    0.0000 C   0  0  0  0  0  0  0  0  0  0  0  0
   -4.1569   -2.4000    0.0000 H   0  0  0  0  0  0  0  0  0  0  0  0
   -2.7713   -0.0001    0.0000 C   0  0  0  0  0  0  0  0  0  0  0  0
   -4.1569    0.8000    0.0000 H   0  0  0  0  0  0  0  0  0  0  0  0
   -1.3857    0.8000    0.0000 C   0  0  0  0  0  0  0  0  0  0  0  0
   -1.3857    2.4000    0.0000 H   0  0  0  0  0  0  0  0  0  0  0  0
  1  2  1  0  0  0  0
  2  3  1  0  0  0  0
  3  4  1  0  0  0  0
  3  5  1  0  0  0  0
  3  6  1  0  0  0  0
  2  7  2  0  0  0  0
  7  8  1  0  0  0  0
  7  9  1  0  0  0  0
  9 10  1  0  0  0  0
 10 11  1  0  0  0  0
 10 12  1  0  0  0  0
 10 13  1  0  0  0  0
  9 14  2  0  0  0  0
 14 15  1  0  0  0  0
 15  1  1  0  0  0  0
 15 16  2  0  0  0  0
 16 17  1  0  0  0  0
 16 18  1  0  0  0  0
 18 19  1  0  0  0  0
 18 20  2  0  0  0  0
 20 21  1  0  0  0  0
 20 22  1  0  0  0  0
 22  1  2  0  0  0  0
 22 23  1  0  0  0  0
M  END
> <ChemID>
101937

> <source_casrn>
1198-37-4

> <CAS>
1198-37-4

> <SMILES>
Cc1cc(C)[n]c2ccccc12

> <NAME>
2,4-DIMETHYLQUINOLINE

> <preferred_name>
Quinoline, 2,4-dimethyl-

> <iupac>
2,4-Dimethylquinoline

> <MPID>
26512

> <dsstox_substance_id>
DTXSID0061610

> <Canonical_QSARr>
Cc1cc(C)[n]c2ccccc12

> <InChI_Code_QSARr>
InChI=1S/C11H11N/c1-8-7-9(2)12-11-6-4-3-5-10(8)11/h3-7H,1-2H3

> <InChI Key_QSARr>
ZTNANFDSJRRZRJ-UHFFFAOYSA-N

> <Salt_Solvent>
?

> <LogVP>
-2.1003

$$$$
101941
  -INDIGO-08031723152D

 45 47  0  0  0  0  0  0  0  0999 V2000
   -7.0642    2.0944    0.0000 O   0  0  0  0  0  0  0  0  0  0  0  0
   -7.0642    0.4944    0.0000 C   0  0  0  0  0  0  0  0  0  0  0  0
   -8.6399    0.7723    0.0000 H   0  0  0  0  0  0  0  0  0  0  0  0
   -7.6114   -1.0091    0.0000 H   0  0  0  0  0  0  0  0  0  0  0  0
   -5.6786   -0.3056    0.0000 C   0  0  0  0  0  0  0  0  0  0  0  0
   -4.6501   -1.5313    0.0000 H   0  0  0  0  0  0  0  0  0  0  0  0
   -6.4785   -1.6911    0.0000 C   0  0  0  0  0  0  0  0  0  0  0  0
   -7.2787   -3.0769    0.0000 H   0  0  0  0  0  0  0  0  0  0  0  0
   -5.6786   -3.0769    0.0000 H   0  0  0  0  0  0  0  0  0  0  0  0
   -8.0786   -1.6911    0.0000 H   0  0  0  0  0  0  0  0  0  0  0  0
   -4.2930    0.4944    0.0000 C   0  0  0  0  0  0  0  0  0  0  0  0
   -4.2930    2.0944    0.0000 C   0  0  0  0  0  0  0  0  0  0  0  0
   -2.9074    2.8944    0.0000 C   0  0  0  0  0  0  0  0  0  0  0  0
   -3.1852    4.4701    0.0000 H   0  0  0  0  0  0  0  0  0  0  0  0
   -1.5216    2.0944    0.0000 C   0  0  0  0  0  0  0  0  0  0  0  0
   -1.5216    0.4944    0.0000 C   0  0  0  0  0  0  0  0  0  0  0  0
   -2.9074   -0.3056    0.0000 C   0  0  0  0  0  0  0  0  0  0  0  0
   -3.1852   -1.8813    0.0000 H   0  0  0  0  0  0  0  0  0  0  0  0
   -0.0001    0.0001    0.0000 C   0  0  0  0  0  0  0  0  0  0  0  0
   -0.6509   -1.4617    0.0000 C   0  0  0  0  0  0  0  0  0  0  0  0
    0.2896   -2.7561    0.0000 H   0  0  0  0  0  0  0  0  0  0  0  0
   -1.3016   -2.9234    0.0000 H   0  0  0  0  0  0  0  0  0  0  0  0
   -2.2421   -1.6289    0.0000 H   0  0  0  0  0  0  0  0  0  0  0  0
    1.3857   -0.7999    0.0000 C   0  0  0  0  0  0  0  0  0  0  0  0
    2.7713   -1.6001    0.0000 H   0  0  0  0  0  0  0  0  0  0  0  0
    1.3857   -2.4001    0.0000 H   0  0  0  0  0  0  0  0  0  0  0  0
    2.8891   -0.2528    0.0000 H   0  0  0  0  0  0  0  0  0  0  0  0
    0.9404    1.2944    0.0000 C   0  0  0  0  0  0  0  0  0  0  0  0
    2.1295    0.2238    0.0000 H   0  0  0  0  0  0  0  0  0  0  0  0
    2.4240    1.8938    0.0000 C   0  0  0  0  0  0  0  0  0  0  0  0
    2.7713    2.5889    0.0000 H   0  0  0  0  0  0  0  0  0  0  0  0
    3.9074    2.4932    0.0000 H   0  0  0  0  0  0  0  0  0  0  0  0
    3.6848    0.9087    0.0000 H   0  0  0  0  0  0  0  0  0  0  0  0
   -0.0001    2.5889    0.0000 C   0  0  0  0  0  0  0  0  0  0  0  0
    1.3857    3.3889    0.0000 C   0  0  0  0  0  0  0  0  0  0  0  0
    2.6113    4.4173    0.0000 H   0  0  0  0  0  0  0  0  0  0  0  0
    2.1607    3.4438    0.0000 H   0  0  0  0  0  0  0  0  0  0  0  0
    1.3857    4.9889    0.0000 H   0  0  0  0  0  0  0  0  0  0  0  0
   -0.6509    4.0505    0.0000 C   0  0  0  0  0  0  0  0  0  0  0  0
   -1.3016    5.5122    0.0000 H   0  0  0  0  0  0  0  0  0  0  0  0
    0.2896    5.3450    0.0000 H   0  0  0  0  0  0  0  0  0  0  0  0
   -2.2421    4.2177    0.0000 H   0  0  0  0  0  0  0  0  0  0  0  0
   -5.6786    2.8944    0.0000 C   0  0  0  0  0  0  0  0  0  0  0  0
   -4.6501    4.1201    0.0000 H   0  0  0  0  0  0  0  0  0  0  0  0
   -6.7071    4.1201    0.0000 H   0  0  0  0  0  0  0  0  0  0  0  0
  1  2  1  0  0  0  0
  2  3  1  0  0  0  0
  2  4  1  0  0  0  0
  2  5  1  0  0  0  0
  5  6  1  0  0  0  0
  5  7  1  0  0  0  0
  7  8  1  0  0  0  0
  7  9  1  0  0  0  0
  7 10  1  0  0  0  0
  5 11  1  0  0  0  0
 11 12  1  0  0  0  0
 12 13  2  0  0  0  0
 13 14  1  0  0  0  0
 13 15  1  0  0  0  0
 15 16  2  0  0  0  0
 16 17  1  0  0  0  0
 17 11  2  0  0  0  0
 17 18  1  0  0  0  0
 16 19  1  0  0  0  0
 19 20  1  0  0  0  0
 20 21  1  0  0  0  0
 20 22  1  0  0  0  0
 20 23  1  0  0  0  0
 19 24  1  0  0  0  0
 24 25  1  0  0  0  0
 24 26  1  0  0  0  0
 24 27  1  0  0  0  0
 19 28  1  0  0  0  0
 28 29  1  0  0  0  0
 28 30  1  0  0  0  0
 30 31  1  0  0  0  0
 30 32  1  0  0  0  0
 30 33  1  0  0  0  0
 28 34  1  0  0  0  0
 34 15  1  0  0  0  0
 34 35  1  0  0  0  0
 35 36  1  0  0  0  0
 35 37  1  0  0  0  0
 35 38  1  0  0  0  0
 34 39  1  0  0  0  0
 39 40  1  0  0  0  0
 39 41  1  0  0  0  0
 39 42  1  0  0  0  0
 12 43  1  0  0  0  0
 43  1  1  0  0  0  0
 43 44  1  0  0  0  0
 43 45  1  0  0  0  0
M  END
> <ChemID>
101941

> <source_casrn>
1222-05-5

> <CAS>
1222-05-5

> <SMILES>
CC1(C)C(C)C(C)(C)c2cc3COCC(C)c3cc12

> <NAME>
Galaxolide

> <preferred_name>
Cyclopenta[g]-2-benzopyran, 1,3,4,6,7,8-hexahydro-4,6,6,7,8,8-hexamethyl-

> <iupac>
4,6,6,7,8,8-hexamethyl-1,3,4,6,7,8-hexahydrocyclopenta[g]isochromene

> <MPID>
26516

> <dsstox_substance_id>
DTXSID8027373

> <Canonical_QSARr>
CC1(C)C(C)C(C)(C)c2cc3COCC(C)c3cc12

> <InChI_Code_QSARr>
InChI=1S/C18H26O/c1-11-9-19-10-13-7-15-16(8-14(11)13)18(5,6)12(2)17(15,3)4/h7-8,11-12H,9-10H2,1-6H3

> <InChI Key_QSARr>
ONKNPOPIGWHAQC-UHFFFAOYSA-N

> <Salt_Solvent>
?

> <LogVP>
-3.2636

$$$$
101954
  -INDIGO-08031723152D

 28 27  0  0  0  0  0  0  0  0999 V2000
    1.3856   -0.8000    0.0000 C   0  0  0  0  0  0  0  0  0  0  0  0
    2.7713   -1.6000    0.0000 H   0  0  0  0  0  0  0  0  0  0  0  0
    1.3856   -2.4000    0.0000 H   0  0  0  0  0  0  0  0  0  0  0  0
    2.7713    0.0000    0.0000 H   0  0  0  0  0  0  0  0  0  0  0  0
    0.0000    0.0000    0.0000 C   0  0  0  0  0  0  0  0  0  0  0  0
   -1.3857    0.8000    0.0000 H   0  0  0  0  0  0  0  0  0  0  0  0
    0.8000    1.3856    0.0000 C   0  0  0  0  0  0  0  0  0  0  0  0
    1.6001    2.7713    0.0000 H   0  0  0  0  0  0  0  0  0  0  0  0
    2.4000    1.3856    0.0000 H   0  0  0  0  0  0  0  0  0  0  0  0
    0.0000    2.7713    0.0000 H   0  0  0  0  0  0  0  0  0  0  0  0
   -0.8001   -1.3856    0.0000 O   0  0  0  0  0  0  0  0  0  0  0  0
   -2.4001   -1.3856    0.0000 P   0  0  0  0  0  0  0  0  0  0  0  0
   -3.9999   -1.3856    0.0000 O   0  0  0  0  0  0  0  0  0  0  0  0
   -5.0285   -0.1600    0.0000 C   0  0  0  0  0  0  0  0  0  0  0  0
   -3.8028    0.8685    0.0000 H   0  0  0  0  0  0  0  0  0  0  0  0
   -6.2542   -1.1885    0.0000 C   0  0  0  0  0  0  0  0  0  0  0  0
   -7.4799   -2.2169    0.0000 H   0  0  0  0  0  0  0  0  0  0  0  0
   -7.7576   -0.6412    0.0000 H   0  0  0  0  0  0  0  0  0  0  0  0
   -5.9762   -2.7641    0.0000 H   0  0  0  0  0  0  0  0  0  0  0  0
   -6.0569    1.0657    0.0000 C   0  0  0  0  0  0  0  0  0  0  0  0
   -7.0854    2.2913    0.0000 H   0  0  0  0  0  0  0  0  0  0  0  0
   -5.5097    2.5693    0.0000 H   0  0  0  0  0  0  0  0  0  0  0  0
   -7.6326    0.7879    0.0000 H   0  0  0  0  0  0  0  0  0  0  0  0
   -3.2000    0.0000    0.0000 O   0  0  0  0  0  0  0  0  0  0  0  0
   -3.2000   -2.7713    0.0000 C   0  0  0  0  0  0  0  0  0  0  0  0
   -2.4001   -4.1569    0.0000 H   0  0  0  0  0  0  0  0  0  0  0  0
   -3.9999   -4.1569    0.0000 H   0  0  0  0  0  0  0  0  0  0  0  0
   -1.6000   -2.7713    0.0000 H   0  0  0  0  0  0  0  0  0  0  0  0
  1  2  1  0  0  0  0
  1  3  1  0  0  0  0
  1  4  1  0  0  0  0
  1  5  1  0  0  0  0
  5  6  1  0  0  0  0
  5  7  1  0  0  0  0
  7  8  1  0  0  0  0
  7  9  1  0  0  0  0
  7 10  1  0  0  0  0
  5 11  1  0  0  0  0
 11 12  1  0  0  0  0
 12 13  1  0  0  0  0
 13 14  1  0  0  0  0
 14 15  1  0  0  0  0
 14 16  1  0  0  0  0
 16 17  1  0  0  0  0
 16 18  1  0  0  0  0
 16 19  1  0  0  0  0
 14 20  1  0  0  0  0
 20 21  1  0  0  0  0
 20 22  1  0  0  0  0
 20 23  1  0  0  0  0
 12 24  2  0  0  0  0
 12 25  1  0  0  0  0
 25 26  1  0  0  0  0
 25 27  1  0  0  0  0
 25 28  1  0  0  0  0
M  END
> <ChemID>
101954

> <source_casrn>
1445-75-6

> <CAS>
1445-75-6

> <SMILES>
CP(=O)(OC(C)C)OC(C)C

> <NAME>
PHOSPHONIC ACID, METHYL-, DIISOPROPYL ESTER

> <preferred_name>
Diisopropyl methylphosphonate

> <iupac>
dipropan-2-yl methylphosphonate

> <MPID>
26522

> <dsstox_substance_id>
DTXSID5024051

> <Canonical_QSARr>
CP(=O)(OC(C)C)OC(C)C

> <InChI_Code_QSARr>
InChI=1S/C7H17O3P/c1-6(2)9-11(5,8)10-7(3)4/h6-7H,1-5H3

> <InChI Key_QSARr>
WOAFDHWYKSOANX-UHFFFAOYSA-N

> <Salt_Solvent>
?

> <LogVP>
-0.5575

$$$$
101959
  -INDIGO-08031723152D

 54 54  0  0  0  0  0  0  0  0999 V2000
   -9.6997   -0.8000    0.0000 C   0  0  0  0  0  0  0  0  0  0  0  0
   -9.6997   -2.4000    0.0000 C   0  0  0  0  0  0  0  0  0  0  0  0
   -8.3140   -3.2000    0.0000 H   0  0  0  0  0  0  0  0  0  0  0  0
  -11.0850   -3.2000    0.0000 C   0  0  0  0  0  0  0  0  0  0  0  0
  -11.0850   -4.8000    0.0000 H   0  0  0  0  0  0  0  0  0  0  0  0
  -12.4707   -2.4000    0.0000 C   0  0  0  0  0  0  0  0  0  0  0  0
  -13.8564   -3.2000    0.0000 H   0  0  0  0  0  0  0  0  0  0  0  0
  -12.4707   -0.8000    0.0000 C   0  0  0  0  0  0  0  0  0  0  0  0
  -13.8564   -0.0000    0.0000 H   0  0  0  0  0  0  0  0  0  0  0  0
  -11.0850   -0.0000    0.0000 C   0  0  0  0  0  0  0  0  0  0  0  0
  -11.0850    1.6000    0.0000 H   0  0  0  0  0  0  0  0  0  0  0  0
   -8.3140   -0.0000    0.0000 C   0  0  0  0  0  0  0  0  0  0  0  0
   -7.7016    1.4782    0.0000 H   0  0  0  0  0  0  0  0  0  0  0  0
   -8.9259    1.4782    0.0000 H   0  0  0  0  0  0  0  0  0  0  0  0
   -6.9283   -0.8000    0.0000 C   0  0  0  0  0  0  0  0  0  0  0  0
   -7.5406   -2.2782    0.0000 H   0  0  0  0  0  0  0  0  0  0  0  0
   -6.3159   -2.2782    0.0000 H   0  0  0  0  0  0  0  0  0  0  0  0
   -5.5426   -0.0000    0.0000 C   0  0  0  0  0  0  0  0  0  0  0  0
   -4.9302    1.4782    0.0000 H   0  0  0  0  0  0  0  0  0  0  0  0
   -6.1549    1.4782    0.0000 H   0  0  0  0  0  0  0  0  0  0  0  0
   -4.1569   -0.8000    0.0000 C   0  0  0  0  0  0  0  0  0  0  0  0
   -4.7692   -2.2782    0.0000 H   0  0  0  0  0  0  0  0  0  0  0  0
   -3.5445   -2.2782    0.0000 H   0  0  0  0  0  0  0  0  0  0  0  0
   -2.7712   -0.0000    0.0000 C   0  0  0  0  0  0  0  0  0  0  0  0
   -2.1592    1.4782    0.0000 H   0  0  0  0  0  0  0  0  0  0  0  0
   -3.3835    1.4782    0.0000 H   0  0  0  0  0  0  0  0  0  0  0  0
   -1.3858   -0.8000    0.0000 C   0  0  0  0  0  0  0  0  0  0  0  0
   -1.9978   -2.2782    0.0000 H   0  0  0  0  0  0  0  0  0  0  0  0
   -0.7735   -2.2782    0.0000 H   0  0  0  0  0  0  0  0  0  0  0  0
   -0.0001   -0.0000    0.0000 C   0  0  0  0  0  0  0  0  0  0  0  0
    0.6122    1.4782    0.0000 H   0  0  0  0  0  0  0  0  0  0  0  0
   -0.6121    1.4782    0.0000 H   0  0  0  0  0  0  0  0  0  0  0  0
    1.3856   -0.8000    0.0000 C   0  0  0  0  0  0  0  0  0  0  0  0
    0.7732   -2.2782    0.0000 H   0  0  0  0  0  0  0  0  0  0  0  0
    1.9979   -2.2782    0.0000 H   0  0  0  0  0  0  0  0  0  0  0  0
    2.7713   -0.0000    0.0000 C   0  0  0  0  0  0  0  0  0  0  0  0
    3.3836    1.4782    0.0000 H   0  0  0  0  0  0  0  0  0  0  0  0
    2.1589    1.4782    0.0000 H   0  0  0  0  0  0  0  0  0  0  0  0
    4.1570   -0.8000    0.0000 C   0  0  0  0  0  0  0  0  0  0  0  0
    3.5446   -2.2782    0.0000 H   0  0  0  0  0  0  0  0  0  0  0  0
    4.7693   -2.2782    0.0000 H   0  0  0  0  0  0  0  0  0  0  0  0
    5.5427   -0.0000    0.0000 C   0  0  0  0  0  0  0  0  0  0  0  0
    6.1550    1.4782    0.0000 H   0  0  0  0  0  0  0  0  0  0  0  0
    4.9303    1.4782    0.0000 H   0  0  0  0  0  0  0  0  0  0  0  0
    6.9284   -0.8000    0.0000 C   0  0  0  0  0  0  0  0  0  0  0  0
    6.3160   -2.2782    0.0000 H   0  0  0  0  0  0  0  0  0  0  0  0
    7.5404   -2.2782    0.0000 H   0  0  0  0  0  0  0  0  0  0  0  0
    8.3137   -0.0000    0.0000 C   0  0  0  0  0  0  0  0  0  0  0  0
    8.9261    1.4782    0.0000 H   0  0  0  0  0  0  0  0  0  0  0  0
    7.7017    1.4782    0.0000 H   0  0  0  0  0  0  0  0  0  0  0  0
    9.6994   -0.8000    0.0000 C   0  0  0  0  0  0  0  0  0  0  0  0
   11.0851   -1.6000    0.0000 H   0  0  0  0  0  0  0  0  0  0  0  0
   11.0851   -0.0000    0.0000 H   0  0  0  0  0  0  0  0  0  0  0  0
    9.6994   -2.4000    0.0000 H   0  0  0  0  0  0  0  0  0  0  0  0
  1  2  1  0  0  0  0
  2  3  1  0  0  0  0
  2  4  2  0  0  0  0
  4  5  1  0  0  0  0
  4  6  1  0  0  0  0
  6  7  1  0  0  0  0
  6  8  2  0  0  0  0
  8  9  1  0  0  0  0
  8 10  1  0  0  0  0
 10  1  2  0  0  0  0
 10 11  1  0  0  0  0
  1 12  1  0  0  0  0
 12 13  1  0  0  0  0
 12 14  1  0  0  0  0
 12 15  1  0  0  0  0
 15 16  1  0  0  0  0
 15 17  1  0  0  0  0
 15 18  1  0  0  0  0
 18 19  1  0  0  0  0
 18 20  1  0  0  0  0
 18 21  1  0  0  0  0
 21 22  1  0  0  0  0
 21 23  1  0  0  0  0
 21 24  1  0  0  0  0
 24 25  1  0  0  0  0
 24 26  1  0  0  0  0
 24 27  1  0  0  0  0
 27 28  1  0  0  0  0
 27 29  1  0  0  0  0
 27 30  1  0  0  0  0
 30 31  1  0  0  0  0
 30 32  1  0  0  0  0
 30 33  1  0  0  0  0
 33 34  1  0  0  0  0
 33 35  1  0  0  0  0
 33 36  1  0  0  0  0
 36 37  1  0  0  0  0
 36 38  1  0  0  0  0
 36 39  1  0  0  0  0
 39 40  1  0  0  0  0
 39 41  1  0  0  0  0
 39 42  1  0  0  0  0
 42 43  1  0  0  0  0
 42 44  1  0  0  0  0
 42 45  1  0  0  0  0
 45 46  1  0  0  0  0
 45 47  1  0  0  0  0
 45 48  1  0  0  0  0
 48 49  1  0  0  0  0
 48 50  1  0  0  0  0
 48 51  1  0  0  0  0
 51 52  1  0  0  0  0
 51 53  1  0  0  0  0
 51 54  1  0  0  0  0
M  END
> <ChemID>
101959

> <source_casrn>
1459-10-5

> <CAS>
1459-10-5

> <SMILES>
CCCCCCCCCCCCCCc1ccccc1

> <NAME>
1-PHENYLTETRADECANE

> <preferred_name>
Tetradecylbenzene

> <iupac>
tetradecylbenzene

> <MPID>
26526

> <dsstox_substance_id>
DTXSID1051729

> <Canonical_QSARr>
CCCCCCCCCCCCCCc1ccccc1

> <InChI_Code_QSARr>
InChI=1S/C20H34/c1-2-3-4-5-6-7-8-9-10-11-12-14-17-20-18-15-13-16-19-20/h13,15-16,18-19H,2-12,14,17H2,1H3

> <InChI Key_QSARr>
JZALLXAUNPOCEU-UHFFFAOYSA-N

> <Salt_Solvent>
?

> <LogVP>
-4.6234

$$$$
101965
  -INDIGO-08031723152D

  4  3  0  0  0  0  0  0  0  0999 V2000
    0.0000    0.0000    0.0000 C   0  0  0  0  0  0  0  0  0  0  0  0
    1.3856    0.8000    0.0000 H   0  0  0  0  0  0  0  0  0  0  0  0
   -1.3856    0.8000    0.0000 O   0  0  0  0  0  0  0  0  0  0  0  0
    0.0000   -1.6000    0.0000 F   0  0  0  0  0  0  0  0  0  0  0  0
  1  2  1  0  0  0  0
  1  3  2  0  0  0  0
  1  4  1  0  0  0  0
M  END
> <ChemID>
101965

> <source_casrn>
1493-02-3

> <CAS>
1493-02-3

> <SMILES>
O=CF

> <NAME>
FORMYL FLUORIDE

> <preferred_name>
Formyl fluoride

> <iupac>
FORMYL FLUORIDE

> <MPID>
26531

> <dsstox_substance_id>
DTXSID6073946

> <Canonical_QSARr>
O=CF

> <InChI_Code_QSARr>
InChI=1S/CHFO/c2-1-3/h1H

> <InChI Key_QSARr>
NHGVZTMBVDFPHJ-UHFFFAOYSA-N

> <Salt_Solvent>
?

> <LogVP>
3.4603

$$$$
101970
  -INDIGO-08031723152D

 26 27  0  0  0  0  0  0  0  0999 V2000
    0.0001    0.0000    0.0000 C   0  0  0  0  0  0  0  0  0  0  0  0
    1.5999   -0.0000    0.0000 C   0  0  0  0  0  0  0  0  0  0  0  0
    2.3999   -1.3856    0.0000 C   0  0  0  0  0  0  0  0  0  0  0  0
    1.5999   -2.7713    0.0000 H   0  0  0  0  0  0  0  0  0  0  0  0
    4.0000   -1.3856    0.0000 C   0  0  0  0  0  0  0  0  0  0  0  0
    4.8000   -2.7713    0.0000 H   0  0  0  0  0  0  0  0  0  0  0  0
    4.8000    0.0000    0.0000 C   0  0  0  0  0  0  0  0  0  0  0  0
    6.4000    0.0000    0.0000 N   0  0  0  0  0  0  0  0  0  0  0  0
    7.2000   -1.3856    0.0000 O   0  0  0  0  0  0  0  0  0  0  0  0
    7.2000    1.3856    0.0000 O   0  0  0  0  0  0  0  0  0  0  0  0
    4.0000    1.3856    0.0000 C   0  0  0  0  0  0  0  0  0  0  0  0
    4.8000    2.7713    0.0000 H   0  0  0  0  0  0  0  0  0  0  0  0
    2.3999    1.3856    0.0000 C   0  0  0  0  0  0  0  0  0  0  0  0
    1.5999    2.7713    0.0000 H   0  0  0  0  0  0  0  0  0  0  0  0
   -0.7999    1.3856    0.0000 C   0  0  0  0  0  0  0  0  0  0  0  0
    0.0001    2.7713    0.0000 H   0  0  0  0  0  0  0  0  0  0  0  0
   -2.4000    1.3856    0.0000 C   0  0  0  0  0  0  0  0  0  0  0  0
   -3.2000    2.7713    0.0000 H   0  0  0  0  0  0  0  0  0  0  0  0
   -3.2000    0.0000    0.0000 C   0  0  0  0  0  0  0  0  0  0  0  0
   -4.8000   -0.0000    0.0000 N   0  0  0  0  0  0  0  0  0  0  0  0
   -5.6000    1.3856    0.0000 O   0  0  0  0  0  0  0  0  0  0  0  0
   -5.6000   -1.3856    0.0000 O   0  0  0  0  0  0  0  0  0  0  0  0
   -2.4000   -1.3856    0.0000 C   0  0  0  0  0  0  0  0  0  0  0  0
   -3.2000   -2.7713    0.0000 H   0  0  0  0  0  0  0  0  0  0  0  0
   -0.7999   -1.3856    0.0000 C   0  0  0  0  0  0  0  0  0  0  0  0
    0.0001   -2.7713    0.0000 H   0  0  0  0  0  0  0  0  0  0  0  0
  1  2  1  0  0  0  0
  2  3  1  0  0  0  0
  3  4  1  0  0  0  0
  3  5  2  0  0  0  0
  5  6  1  0  0  0  0
  5  7  1  0  0  0  0
  7  8  1  0  0  0  0
  8  9  2  0  0  0  0
  8 10  1  0  0  0  0
  7 11  2  0  0  0  0
 11 12  1  0  0  0  0
 11 13  1  0  0  0  0
 13  2  2  0  0  0  0
 13 14  1  0  0  0  0
  1 15  1  0  0  0  0
 15 16  1  0  0  0  0
 15 17  2  0  0  0  0
 17 18  1  0  0  0  0
 17 19  1  0  0  0  0
 19 20  1  0  0  0  0
 20 21  2  0  0  0  0
 20 22  1  0  0  0  0
 19 23  2  0  0  0  0
 23 24  1  0  0  0  0
 23 25  1  0  0  0  0
 25  1  2  0  0  0  0
 25 26  1  0  0  0  0
M  CHG  4   8   1  10  -1  20   1  22  -1
M  END
> <ChemID>
101970

> <source_casrn>
1528-74-1

> <CAS>
1528-74-1

> <SMILES>
[O-][N+](=O)c1ccc(cc1)-c1ccc(cc1)[N+]([O-])=O

> <NAME>
4,4'-DINITROBIPHENYL

> <preferred_name>
1,1'-Biphenyl, 4,4'-dinitro-

> <iupac>
1-nitro-4-(4-nitrophenyl)benzene

> <MPID>
26535

> <dsstox_substance_id>
DTXSID4061757

> <Canonical_QSARr>
[O-][N+](=O)c1ccc(cc1)-c1ccc(cc1)[N+]([O-])=O

> <InChI_Code_QSARr>
InChI=1S/C12H8N2O4/c15-13(16)11-5-1-9(2-6-11)10-3-7-12(8-4-10)14(17)18/h1-8H

> <InChI Key_QSARr>
BDLNCFCZHNKBGI-UHFFFAOYSA-N

> <Salt_Solvent>
?

> <LogVP>
-7.5622

$$$$
101974
  -INDIGO-08031723152D

 22 21  0  0  0  0  0  0  0  0999 V2000
   -1.3857    0.8000    0.0000 C   0  0  0  0  0  0  0  0  0  0  0  0
   -0.7734    2.2782    0.0000 H   0  0  0  0  0  0  0  0  0  0  0  0
   -1.9979    2.2782    0.0000 H   0  0  0  0  0  0  0  0  0  0  0  0
   -0.0000    0.0000    0.0000 C   0  0  0  0  0  0  0  0  0  0  0  0
   -0.7999   -1.3857    0.0000 H   0  0  0  0  0  0  0  0  0  0  0  0
    1.3856   -0.8000    0.0000 C   0  0  0  0  0  0  0  0  0  0  0  0
    2.7713   -1.6000    0.0000 H   0  0  0  0  0  0  0  0  0  0  0  0
    2.7713    0.0000    0.0000 H   0  0  0  0  0  0  0  0  0  0  0  0
    1.3856   -2.4000    0.0000 H   0  0  0  0  0  0  0  0  0  0  0  0
    0.8000    1.3857    0.0000 O   0  0  0  0  0  0  0  0  0  0  0  0
    2.4000    1.3857    0.0000 H   0  0  0  0  0  0  0  0  0  0  0  0
   -2.7712    0.0000    0.0000 O   0  0  0  0  0  0  0  0  0  0  0  0
   -4.1569    0.8000    0.0000 C   0  0  0  0  0  0  0  0  0  0  0  0
   -3.5447    2.2782    0.0000 H   0  0  0  0  0  0  0  0  0  0  0  0
   -4.7692    2.2782    0.0000 H   0  0  0  0  0  0  0  0  0  0  0  0
   -5.5425    0.0000    0.0000 C   0  0  0  0  0  0  0  0  0  0  0  0
   -6.1548   -1.4782    0.0000 H   0  0  0  0  0  0  0  0  0  0  0  0
   -4.9302   -1.4782    0.0000 H   0  0  0  0  0  0  0  0  0  0  0  0
   -6.9282    0.8000    0.0000 C   0  0  0  0  0  0  0  0  0  0  0  0
   -8.3138    1.6000    0.0000 H   0  0  0  0  0  0  0  0  0  0  0  0
   -8.3138    0.0000    0.0000 H   0  0  0  0  0  0  0  0  0  0  0  0
   -6.9282    2.4000    0.0000 H   0  0  0  0  0  0  0  0  0  0  0  0
  1  2  1  0  0  0  0
  1  3  1  0  0  0  0
  1  4  1  0  0  0  0
  4  5  1  0  0  0  0
  4  6  1  0  0  0  0
  6  7  1  0  0  0  0
  6  8  1  0  0  0  0
  6  9  1  0  0  0  0
  4 10  1  0  0  0  0
 10 11  1  0  0  0  0
  1 12  1  0  0  0  0
 12 13  1  0  0  0  0
 13 14  1  0  0  0  0
 13 15  1  0  0  0  0
 13 16  1  0  0  0  0
 16 17  1  0  0  0  0
 16 18  1  0  0  0  0
 16 19  1  0  0  0  0
 19 20  1  0  0  0  0
 19 21  1  0  0  0  0
 19 22  1  0  0  0  0
M  END
> <ChemID>
101974

> <source_casrn>
1569-01-3

> <CAS>
1569-01-3

> <SMILES>
CCCOCC(C)O

> <NAME>
1-PROPOXY-2-PROPANOL

> <preferred_name>
1-Propoxy-2-propanol

> <iupac>
1-propoxypropan-2-ol

> <MPID>
26539

> <dsstox_substance_id>
DTXSID5029217

> <Canonical_QSARr>
CCCOCC(C)O

> <InChI_Code_QSARr>
InChI=1S/C6H14O2/c1-3-4-8-5-6(2)7/h6-7H,3-5H2,1-2H3

> <InChI Key_QSARr>
FENFUOGYJVOCRY-UHFFFAOYSA-N

> <Salt_Solvent>
?

> <LogVP>
0.2304

$$$$
101979
  -INDIGO-08031723152D

 18 18  0  0  0  0  0  0  0  0999 V2000
    4.8001    0.0000    0.0000 C   0  0  0  0  0  0  0  0  0  0  0  0
    4.0000    1.3856    0.0000 C   0  0  0  0  0  0  0  0  0  0  0  0
    4.8001    2.7713    0.0000 H   0  0  0  0  0  0  0  0  0  0  0  0
    2.4000    1.3856    0.0000 C   0  0  0  0  0  0  0  0  0  0  0  0
    1.6000    2.7713    0.0000 H   0  0  0  0  0  0  0  0  0  0  0  0
    1.6000    0.0000    0.0000 C   0  0  0  0  0  0  0  0  0  0  0  0
   -0.0000   -0.0000    0.0000 C   0  0  0  0  0  0  0  0  0  0  0  0
   -0.2088   -1.5863    0.0000 H   0  0  0  0  0  0  0  0  0  0  0  0
   -1.2694   -0.9740    0.0000 H   0  0  0  0  0  0  0  0  0  0  0  0
   -0.8001    1.3856    0.0000 C   0  0  0  0  0  0  0  0  0  0  0  0
   -2.4000    1.3856    0.0000 H   0  0  0  0  0  0  0  0  0  0  0  0
   -1.6000    2.7713    0.0000 H   0  0  0  0  0  0  0  0  0  0  0  0
   -1.6000   -0.0000    0.0000 H   0  0  0  0  0  0  0  0  0  0  0  0
    2.4000   -1.3856    0.0000 C   0  0  0  0  0  0  0  0  0  0  0  0
    1.6000   -2.7713    0.0000 H   0  0  0  0  0  0  0  0  0  0  0  0
    4.0000   -1.3856    0.0000 C   0  0  0  0  0  0  0  0  0  0  0  0
    4.8001   -2.7713    0.0000 H   0  0  0  0  0  0  0  0  0  0  0  0
    6.4000   -0.0000    0.0000 Br  0  0  0  0  0  0  0  0  0  0  0  0
  1  2  1  0  0  0  0
  2  3  1  0  0  0  0
  2  4  2  0  0  0  0
  4  5  1  0  0  0  0
  4  6  1  0  0  0  0
  6  7  1  0  0  0  0
  7  8  1  0  0  0  0
  7  9  1  0  0  0  0
  7 10  1  0  0  0  0
 10 11  1  0  0  0  0
 10 12  1  0  0  0  0
 10 13  1  0  0  0  0
  6 14  2  0  0  0  0
 14 15  1  0  0  0  0
 14 16  1  0  0  0  0
 16  1  2  0  0  0  0
 16 17  1  0  0  0  0
  1 18  1  0  0  0  0
M  END
> <ChemID>
101979

> <source_casrn>
1585-07-5

> <CAS>
1585-07-5

> <SMILES>
CCc1ccc(Br)cc1

> <NAME>
1-BROMO-4-ETHYLBENZENE

> <preferred_name>
1-Bromo-4-ethylbenzene

> <iupac>
1-bromo-4-ethylbenzene

> <MPID>
26543

> <dsstox_substance_id>
DTXSID0029218

> <Canonical_QSARr>
CCc1ccc(Br)cc1

> <InChI_Code_QSARr>
InChI=1S/C8H9Br/c1-2-7-3-5-8(9)6-4-7/h3-6H,2H2,1H3

> <InChI Key_QSARr>
URFPRAHGGBYNPW-UHFFFAOYSA-N

> <Salt_Solvent>
?

> <LogVP>
-0.1549

$$$$
101983
  -INDIGO-08031723152D

 35 35  0  0  0  0  0  0  0  0999 V2000
    2.7713   -0.0000    0.0000 C   0  0  0  0  0  0  0  0  0  0  0  0
    4.1570    0.8000    0.0000 N   0  0  0  0  0  0  0  0  0  0  0  0
    5.5426   -0.0000    0.0000 C   0  0  0  0  0  0  0  0  0  0  0  0
    6.9283    0.8000    0.0000 N   0  0  0  0  0  0  0  0  0  0  0  0
    6.9283    2.4000    0.0000 H   0  0  0  0  0  0  0  0  0  0  0  0
    8.3138   -0.0000    0.0000 C   0  0  0  0  0  0  0  0  0  0  0  0
    7.5138   -1.3856    0.0000 H   0  0  0  0  0  0  0  0  0  0  0  0
    9.6996   -0.8000    0.0000 C   0  0  0  0  0  0  0  0  0  0  0  0
   11.0851   -1.6000    0.0000 H   0  0  0  0  0  0  0  0  0  0  0  0
   11.0851   -0.0000    0.0000 H   0  0  0  0  0  0  0  0  0  0  0  0
    9.6996   -2.4000    0.0000 H   0  0  0  0  0  0  0  0  0  0  0  0
    9.1139    1.3857    0.0000 C   0  0  0  0  0  0  0  0  0  0  0  0
    9.9138    2.7713    0.0000 H   0  0  0  0  0  0  0  0  0  0  0  0
   10.7138    1.3857    0.0000 H   0  0  0  0  0  0  0  0  0  0  0  0
    8.3138    2.7713    0.0000 H   0  0  0  0  0  0  0  0  0  0  0  0
    5.5426   -1.6000    0.0000 N   0  0  0  0  0  0  0  0  0  0  0  0
    4.1570   -2.4000    0.0000 C   0  0  0  0  0  0  0  0  0  0  0  0
    4.1570   -3.9999    0.0000 O   0  0  0  0  0  0  0  0  0  0  0  0
    5.5426   -4.8000    0.0000 C   0  0  0  0  0  0  0  0  0  0  0  0
    5.5426   -6.4000    0.0000 H   0  0  0  0  0  0  0  0  0  0  0  0
    6.9283   -5.5999    0.0000 H   0  0  0  0  0  0  0  0  0  0  0  0
    4.1570   -5.5999    0.0000 H   0  0  0  0  0  0  0  0  0  0  0  0
    2.7713   -1.6000    0.0000 N   0  0  0  0  0  0  0  0  0  0  0  0
    1.3857    0.8000    0.0000 N   0  0  0  0  0  0  0  0  0  0  0  0
    1.3855    2.4000    0.0000 H   0  0  0  0  0  0  0  0  0  0  0  0
    0.0000   -0.0000    0.0000 C   0  0  0  0  0  0  0  0  0  0  0  0
    0.8001   -1.3856    0.0000 H   0  0  0  0  0  0  0  0  0  0  0  0
   -1.3855   -0.8000    0.0000 C   0  0  0  0  0  0  0  0  0  0  0  0
   -2.7713   -1.6000    0.0000 H   0  0  0  0  0  0  0  0  0  0  0  0
   -2.7713   -0.0000    0.0000 H   0  0  0  0  0  0  0  0  0  0  0  0
   -1.3857   -2.4000    0.0000 H   0  0  0  0  0  0  0  0  0  0  0  0
   -0.8001    1.3857    0.0000 C   0  0  0  0  0  0  0  0  0  0  0  0
   -1.5999    2.7713    0.0000 H   0  0  0  0  0  0  0  0  0  0  0  0
   -2.4000    1.3857    0.0000 H   0  0  0  0  0  0  0  0  0  0  0  0
    0.0000    2.7713    0.0000 H   0  0  0  0  0  0  0  0  0  0  0  0
  1  2  1  0  0  0  0
  2  3  2  0  0  0  0
  3  4  1  0  0  0  0
  4  5  1  0  0  0  0
  4  6  1  0  0  0  0
  6  7  1  0  0  0  0
  6  8  1  0  0  0  0
  8  9  1  0  0  0  0
  8 10  1  0  0  0  0
  8 11  1  0  0  0  0
  6 12  1  0  0  0  0
 12 13  1  0  0  0  0
 12 14  1  0  0  0  0
 12 15  1  0  0  0  0
  3 16  1  0  0  0  0
 16 17  2  0  0  0  0
 17 18  1  0  0  0  0
 18 19  1  0  0  0  0
 19 20  1  0  0  0  0
 19 21  1  0  0  0  0
 19 22  1  0  0  0  0
 17 23  1  0  0  0  0
 23  1  2  0  0  0  0
  1 24  1  0  0  0  0
 24 25  1  0  0  0  0
 24 26  1  0  0  0  0
 26 27  1  0  0  0  0
 26 28  1  0  0  0  0
 28 29  1  0  0  0  0
 28 30  1  0  0  0  0
 28 31  1  0  0  0  0
 26 32  1  0  0  0  0
 32 33  1  0  0  0  0
 32 34  1  0  0  0  0
 32 35  1  0  0  0  0
M  END
> <ChemID>
101983

> <source_casrn>
1610-18-0

> <CAS>
1610-18-0

> <SMILES>
COc1[n]c(NC(C)C)[n]c(NC(C)C)[n]1

> <NAME>
PROMETON

> <preferred_name>
Prometon

> <iupac>
6-methoxy-N,N'-di(propan-2-yl)-1,3,5-triazine-2,4-diamine

> <MPID>
26547

> <dsstox_substance_id>
DTXSID6022341

> <Canonical_QSARr>
COc1[n]c(NC(C)C)[n]c(NC(C)C)[n]1

> <InChI_Code_QSARr>
InChI=1S/C10H19N5O/c1-6(2)11-8-13-9(12-7(3)4)15-10(14-8)16-5/h6-7H,1-5H3,(H2,11,12,13,14,15)

> <InChI Key_QSARr>
ISEUFVQQFVOBCY-UHFFFAOYSA-N

> <Salt_Solvent>
?

> <LogVP>
-5.6383

$$$$
101987
  -INDIGO-08031723152D

 18 17  0  0  0  0  0  0  0  0999 V2000
    1.3856   -0.8000    0.0000 C   0  0  0  0  0  0  0  0  0  0  0  0
    2.7713   -1.6000    0.0000 H   0  0  0  0  0  0  0  0  0  0  0  0
    2.7713    0.0000    0.0000 H   0  0  0  0  0  0  0  0  0  0  0  0
    1.3856   -2.4000    0.0000 H   0  0  0  0  0  0  0  0  0  0  0  0
    0.0001    0.0000    0.0000 C   0  0  0  0  0  0  0  0  0  0  0  0
    0.8000    1.3856    0.0000 O   0  0  0  0  0  0  0  0  0  0  0  0
    2.4000    1.3856    0.0000 C   0  0  0  0  0  0  0  0  0  0  0  0
    3.2000    2.7713    0.0000 H   0  0  0  0  0  0  0  0  0  0  0  0
    4.0000    1.3856    0.0000 H   0  0  0  0  0  0  0  0  0  0  0  0
    1.6000    2.7713    0.0000 H   0  0  0  0  0  0  0  0  0  0  0  0
   -1.3856    0.8000    0.0000 C   0  0  0  0  0  0  0  0  0  0  0  0
   -2.7713    1.6000    0.0000 H   0  0  0  0  0  0  0  0  0  0  0  0
   -1.3856    2.4000    0.0000 H   0  0  0  0  0  0  0  0  0  0  0  0
   -2.7713    0.0000    0.0000 H   0  0  0  0  0  0  0  0  0  0  0  0
   -0.8000   -1.3856    0.0000 C   0  0  0  0  0  0  0  0  0  0  0  0
   -1.6000   -2.7713    0.0000 H   0  0  0  0  0  0  0  0  0  0  0  0
   -0.0001   -2.7713    0.0000 H   0  0  0  0  0  0  0  0  0  0  0  0
   -2.4000   -1.3856    0.0000 H   0  0  0  0  0  0  0  0  0  0  0  0
  1  2  1  0  0  0  0
  1  3  1  0  0  0  0
  1  4  1  0  0  0  0
  1  5  1  0  0  0  0
  5  6  1  0  0  0  0
  6  7  1  0  0  0  0
  7  8  1  0  0  0  0
  7  9  1  0  0  0  0
  7 10  1  0  0  0  0
  5 11  1  0  0  0  0
 11 12  1  0  0  0  0
 11 13  1  0  0  0  0
 11 14  1  0  0  0  0
  5 15  1  0  0  0  0
 15 16  1  0  0  0  0
 15 17  1  0  0  0  0
 15 18  1  0  0  0  0
M  END
> <ChemID>
101987

> <source_casrn>
1634-04-4

> <CAS>
1634-04-4

> <SMILES>
COC(C)(C)C

> <NAME>
METHYL T-BUTYL ETHER

> <preferred_name>
Methyl tert-butyl ether

> <iupac>
tert-butyl methyl ether

> <MPID>
26551

> <dsstox_substance_id>
DTXSID3020833

> <Canonical_QSARr>
COC(C)(C)C

> <InChI_Code_QSARr>
InChI=1S/C5H12O/c1-5(2,3)6-4/h1-4H3

> <InChI Key_QSARr>
BZLVMXJERCGZMT-UHFFFAOYSA-N

> <Salt_Solvent>
?

> <LogVP>
2.3979

$$$$
101991
  -INDIGO-08031723152D

 24 23  0  0  0  0  0  0  0  0999 V2000
    0.0001    0.0000    0.0000 C   0  0  0  0  0  0  0  0  0  0  0  0
    0.6122   -1.4782    0.0000 H   0  0  0  0  0  0  0  0  0  0  0  0
   -0.6123   -1.4782    0.0000 H   0  0  0  0  0  0  0  0  0  0  0  0
    1.3856    0.8000    0.0000 C   0  0  0  0  0  0  0  0  0  0  0  0
    0.7734    2.2782    0.0000 H   0  0  0  0  0  0  0  0  0  0  0  0
    1.9979    2.2782    0.0000 H   0  0  0  0  0  0  0  0  0  0  0  0
    2.7713    0.0000    0.0000 C   0  0  0  0  0  0  0  0  0  0  0  0
    3.3836   -1.4782    0.0000 H   0  0  0  0  0  0  0  0  0  0  0  0
    2.1589   -1.4782    0.0000 H   0  0  0  0  0  0  0  0  0  0  0  0
    4.1570    0.8000    0.0000 C   0  0  0  0  0  0  0  0  0  0  0  0
    3.5446    2.2782    0.0000 H   0  0  0  0  0  0  0  0  0  0  0  0
    4.7692    2.2782    0.0000 H   0  0  0  0  0  0  0  0  0  0  0  0
    5.5425    0.0000    0.0000 S   0  0  0  0  0  0  0  0  0  0  0  0
    6.9282    0.8000    0.0000 H   0  0  0  0  0  0  0  0  0  0  0  0
   -1.3856    0.8000    0.0000 C   0  0  0  0  0  0  0  0  0  0  0  0
   -1.9980    2.2782    0.0000 H   0  0  0  0  0  0  0  0  0  0  0  0
   -0.7733    2.2782    0.0000 H   0  0  0  0  0  0  0  0  0  0  0  0
   -2.7713    0.0000    0.0000 C   0  0  0  0  0  0  0  0  0  0  0  0
   -2.1590   -1.4782    0.0000 H   0  0  0  0  0  0  0  0  0  0  0  0
   -3.3835   -1.4782    0.0000 H   0  0  0  0  0  0  0  0  0  0  0  0
   -4.1569    0.8000    0.0000 C   0  0  0  0  0  0  0  0  0  0  0  0
   -5.5426    1.6000    0.0000 H   0  0  0  0  0  0  0  0  0  0  0  0
   -5.5426    0.0000    0.0000 H   0  0  0  0  0  0  0  0  0  0  0  0
   -4.1569    2.4000    0.0000 H   0  0  0  0  0  0  0  0  0  0  0  0
  1  2  1  0  0  0  0
  1  3  1  0  0  0  0
  1  4  1  0  0  0  0
  4  5  1  0  0  0  0
  4  6  1  0  0  0  0
  4  7  1  0  0  0  0
  7  8  1  0  0  0  0
  7  9  1  0  0  0  0
  7 10  1  0  0  0  0
 10 11  1  0  0  0  0
 10 12  1  0  0  0  0
 10 13  1  0  0  0  0
 13 14  1  0  0  0  0
  1 15  1  0  0  0  0
 15 16  1  0  0  0  0
 15 17  1  0  0  0  0
 15 18  1  0  0  0  0
 18 19  1  0  0  0  0
 18 20  1  0  0  0  0
 18 21  1  0  0  0  0
 21 22  1  0  0  0  0
 21 23  1  0  0  0  0
 21 24  1  0  0  0  0
M  END
> <ChemID>
101991

> <source_casrn>
1639-09-4

> <CAS>
1639-09-4

> <SMILES>
CCCCCCCS

> <NAME>
1-HEPTANETHIOL

> <preferred_name>
1-Heptanethiol

> <iupac>
heptane-1-thiol

> <MPID>
26555

> <dsstox_substance_id>
DTXSID3061841

> <Canonical_QSARr>
CCCCCCCS

> <InChI_Code_QSARr>
InChI=1S/C7H16S/c1-2-3-4-5-6-7-8/h8H,2-7H2,1H3

> <InChI Key_QSARr>
VPIAKHNXCOTPAY-UHFFFAOYSA-N

> <Salt_Solvent>
?

> <LogVP>
0.1163

$$$$
101995
  -INDIGO-08031723152D

  8  7  0  0  0  0  0  0  0  0999 V2000
    0.0000    0.0000    0.0000 C   0  0  0  0  0  0  0  0  0  0  0  0
    1.6000    0.0000    0.0000 C   0  0  0  0  0  0  0  0  0  0  0  0
    3.2000    0.0000    0.0000 H   0  0  0  0  0  0  0  0  0  0  0  0
    2.4000   -1.3856    0.0000 H   0  0  0  0  0  0  0  0  0  0  0  0
    2.4000    1.3856    0.0000 Cl  0  0  0  0  0  0  0  0  0  0  0  0
   -1.6000   -0.0000    0.0000 Cl  0  0  0  0  0  0  0  0  0  0  0  0
   -0.8000   -1.3856    0.0000 F   0  0  0  0  0  0  0  0  0  0  0  0
   -0.8000    1.3856    0.0000 F   0  0  0  0  0  0  0  0  0  0  0  0
  1  2  1  0  0  0  0
  2  3  1  0  0  0  0
  2  4  1  0  0  0  0
  2  5  1  0  0  0  0
  1  6  1  0  0  0  0
  1  7  1  0  0  0  0
  1  8  1  0  0  0  0
M  END
> <ChemID>
101995

> <source_casrn>
1649-08-7

> <CAS>
1649-08-7

> <SMILES>
FC(F)(Cl)CCl

> <NAME>
1,2-DICHLORO-1,1-DIFLUOROETHANE

> <preferred_name>
1,2-Dichloro-1,1-difluoroethane

> <iupac>
1,2-dichloro-1,1-difluoroethane

> <MPID>
26559

> <dsstox_substance_id>
DTXSID5031393

> <Canonical_QSARr>
FC(F)(Cl)CCl

> <InChI_Code_QSARr>
InChI=1S/C2H2Cl2F2/c3-1-2(4,5)6/h1H2

> <InChI Key_QSARr>
SKDFWEPBABSFMG-UHFFFAOYSA-N

> <Salt_Solvent>
?

> <LogVP>
2.5315

$$$$
101999
  -INDIGO-08031723152D

 27 27  0  0  0  0  0  0  0  0999 V2000
    0.0000   -0.0000    0.0000 C   0  0  0  0  0  0  0  0  0  0  0  0
    1.2257   -1.0284    0.0000 H   0  0  0  0  0  0  0  0  0  0  0  0
   -0.7999    1.3856    0.0000 C   0  0  0  0  0  0  0  0  0  0  0  0
    0.7757    1.6635    0.0000 H   0  0  0  0  0  0  0  0  0  0  0  0
   -1.0779    2.9614    0.0000 H   0  0  0  0  0  0  0  0  0  0  0  0
   -2.4000    1.3856    0.0000 C   0  0  0  0  0  0  0  0  0  0  0  0
   -2.1222    2.9614    0.0000 H   0  0  0  0  0  0  0  0  0  0  0  0
   -3.9035    1.9329    0.0000 H   0  0  0  0  0  0  0  0  0  0  0  0
   -3.2000   -0.0000    0.0000 C   0  0  0  0  0  0  0  0  0  0  0  0
   -4.4257    1.0285    0.0000 H   0  0  0  0  0  0  0  0  0  0  0  0
   -4.4257   -1.0284    0.0000 H   0  0  0  0  0  0  0  0  0  0  0  0
   -2.4000   -1.3856    0.0000 C   0  0  0  0  0  0  0  0  0  0  0  0
   -3.9035   -1.9328    0.0000 H   0  0  0  0  0  0  0  0  0  0  0  0
   -2.1222   -2.9613    0.0000 H   0  0  0  0  0  0  0  0  0  0  0  0
   -0.7999   -1.3856    0.0000 C   0  0  0  0  0  0  0  0  0  0  0  0
   -1.0779   -2.9613    0.0000 H   0  0  0  0  0  0  0  0  0  0  0  0
    0.7034   -1.9328    0.0000 H   0  0  0  0  0  0  0  0  0  0  0  0
    1.2257    1.0285    0.0000 C   0  0  0  0  0  0  0  0  0  0  0  0
    0.3661    2.3779    0.0000 H   0  0  0  0  0  0  0  0  0  0  0  0
    1.5720    2.5906    0.0000 H   0  0  0  0  0  0  0  0  0  0  0  0
    2.7291    0.4812    0.0000 C   0  0  0  0  0  0  0  0  0  0  0  0
    3.5888   -0.8682    0.0000 H   0  0  0  0  0  0  0  0  0  0  0  0
    2.3828   -1.0808    0.0000 H   0  0  0  0  0  0  0  0  0  0  0  0
    3.9548    1.5096    0.0000 C   0  0  0  0  0  0  0  0  0  0  0  0
    5.1805    2.5381    0.0000 H   0  0  0  0  0  0  0  0  0  0  0  0
    5.4584    0.9625    0.0000 H   0  0  0  0  0  0  0  0  0  0  0  0
    3.6770    3.0854    0.0000 H   0  0  0  0  0  0  0  0  0  0  0  0
  1  2  1  0  0  0  0
  1  3  1  0  0  0  0
  3  4  1  0  0  0  0
  3  5  1  0  0  0  0
  3  6  1  0  0  0  0
  6  7  1  0  0  0  0
  6  8  1  0  0  0  0
  6  9  1  0  0  0  0
  9 10  1  0  0  0  0
  9 11  1  0  0  0  0
  9 12  1  0  0  0  0
 12 13  1  0  0  0  0
 12 14  1  0  0  0  0
 12 15  1  0  0  0  0
 15  1  1  0  0  0  0
 15 16  1  0  0  0  0
 15 17  1  0  0  0  0
  1 18  1  0  0  0  0
 18 19  1  0  0  0  0
 18 20  1  0  0  0  0
 18 21  1  0  0  0  0
 21 22  1  0  0  0  0
 21 23  1  0  0  0  0
 21 24  1  0  0  0  0
 24 25  1  0  0  0  0
 24 26  1  0  0  0  0
 24 27  1  0  0  0  0
M  END
> <ChemID>
101999

> <source_casrn>
1678-92-8

> <CAS>
1678-92-8

> <SMILES>
CCCC1CCCCC1

> <NAME>
N-PROPYLCYCLOHEXANE

> <preferred_name>
Cyclohexane, propyl-

> <iupac>
Propylcyclohexane

> <MPID>
26563

> <dsstox_substance_id>
DTXSID4074699

> <Canonical_QSARr>
CCCC1CCCCC1

> <InChI_Code_QSARr>
InChI=1S/C9H18/c1-2-6-9-7-4-3-5-8-9/h9H,2-8H2,1H3

> <InChI Key_QSARr>
DEDZSLCZHWTGOR-UHFFFAOYSA-N

> <Salt_Solvent>
?

> <LogVP>
0.6224

$$$$
102003
  -INDIGO-08031723152D

 18 17  0  0  0  0  0  0  0  0999 V2000
   -0.0000    0.0000    0.0000 C   0  0  0  0  0  0  0  0  0  0  0  0
    1.5036    0.5472    0.0000 C   0  0  0  0  0  0  0  0  0  0  0  0
    1.1572    2.1093    0.0000 H   0  0  0  0  0  0  0  0  0  0  0  0
    2.3631    1.8967    0.0000 H   0  0  0  0  0  0  0  0  0  0  0  0
    2.7292   -0.4813    0.0000 C   0  0  0  0  0  0  0  0  0  0  0  0
    3.9548   -1.5097    0.0000 H   0  0  0  0  0  0  0  0  0  0  0  0
    4.2327    0.0660    0.0000 H   0  0  0  0  0  0  0  0  0  0  0  0
    2.4513   -2.0569    0.0000 H   0  0  0  0  0  0  0  0  0  0  0  0
   -1.3857   -0.8000    0.0000 C   0  0  0  0  0  0  0  0  0  0  0  0
   -2.7713   -1.6000    0.0000 H   0  0  0  0  0  0  0  0  0  0  0  0
   -1.3857   -2.4000    0.0000 H   0  0  0  0  0  0  0  0  0  0  0  0
   -2.7713    0.0000    0.0000 H   0  0  0  0  0  0  0  0  0  0  0  0
   -0.8000    1.3856    0.0000 C   0  0  0  0  0  0  0  0  0  0  0  0
   -1.6001    2.7713    0.0000 H   0  0  0  0  0  0  0  0  0  0  0  0
   -0.0000    2.7713    0.0000 H   0  0  0  0  0  0  0  0  0  0  0  0
   -2.4000    1.3856    0.0000 H   0  0  0  0  0  0  0  0  0  0  0  0
    0.8000   -1.3856    0.0000 S   0  0  0  0  0  0  0  0  0  0  0  0
   -0.0000   -2.7713    0.0000 H   0  0  0  0  0  0  0  0  0  0  0  0
  1  2  1  0  0  0  0
  2  3  1  0  0  0  0
  2  4  1  0  0  0  0
  2  5  1  0  0  0  0
  5  6  1  0  0  0  0
  5  7  1  0  0  0  0
  5  8  1  0  0  0  0
  1  9  1  0  0  0  0
  9 10  1  0  0  0  0
  9 11  1  0  0  0  0
  9 12  1  0  0  0  0
  1 13  1  0  0  0  0
 13 14  1  0  0  0  0
 13 15  1  0  0  0  0
 13 16  1  0  0  0  0
  1 17  1  0  0  0  0
 17 18  1  0  0  0  0
M  END
> <ChemID>
102003

> <source_casrn>
1679-09-0

> <CAS>
1679-09-0

> <SMILES>
CCC(C)(C)S

> <NAME>
2-METHYL-2-BUTANETHIOL

> <preferred_name>
2-Butanethiol, 2-methyl-

> <iupac>
2-Methylbutane-2-thiol

> <MPID>
26567

> <dsstox_substance_id>
DTXSID5061877

> <Canonical_QSARr>
CCC(C)(C)S

> <InChI_Code_QSARr>
InChI=1S/C5H12S/c1-4-5(2,3)6/h6H,4H2,1-3H3

> <InChI Key_QSARr>
IQIBYAHJXQVQGB-UHFFFAOYSA-N

> <Salt_Solvent>
?

> <LogVP>
1.6802

$$$$
102007
  -INDIGO-08031723152D

 37 37  0  0  0  0  0  0  0  0999 V2000
    5.5427   -0.0000    0.0000 C   0  0  0  0  0  0  0  0  0  0  0  0
    5.5427   -1.6000    0.0000 O   0  0  0  0  0  0  0  0  0  0  0  0
    6.9283    0.8000    0.0000 O   0  0  0  0  0  0  0  0  0  0  0  0
    8.3139   -0.0000    0.0000 C   0  0  0  0  0  0  0  0  0  0  0  0
    8.3139   -1.6000    0.0000 C   0  0  0  0  0  0  0  0  0  0  0  0
    6.9283   -2.4000    0.0000 Br  0  0  0  0  0  0  0  0  0  0  0  0
    9.6995   -2.4000    0.0000 C   0  0  0  0  0  0  0  0  0  0  0  0
    9.6995   -4.0000    0.0000 H   0  0  0  0  0  0  0  0  0  0  0  0
   11.0852   -1.6000    0.0000 C   0  0  0  0  0  0  0  0  0  0  0  0
   12.4708   -2.4000    0.0000 C   0  0  0  0  0  0  0  0  0  0  0  0
   13.8564   -3.2000    0.0000 N   0  0  0  0  0  0  0  0  0  0  0  0
   11.0852   -0.0000    0.0000 C   0  0  0  0  0  0  0  0  0  0  0  0
   12.4708    0.8000    0.0000 H   0  0  0  0  0  0  0  0  0  0  0  0
    9.6995    0.8000    0.0000 C   0  0  0  0  0  0  0  0  0  0  0  0
    9.6995    2.4000    0.0000 Br  0  0  0  0  0  0  0  0  0  0  0  0
    4.1571    0.8000    0.0000 C   0  0  0  0  0  0  0  0  0  0  0  0
    3.5446    2.2782    0.0000 H   0  0  0  0  0  0  0  0  0  0  0  0
    4.7692    2.2782    0.0000 H   0  0  0  0  0  0  0  0  0  0  0  0
    2.7712   -0.0000    0.0000 C   0  0  0  0  0  0  0  0  0  0  0  0
    3.3836   -1.4782    0.0000 H   0  0  0  0  0  0  0  0  0  0  0  0
    2.1590   -1.4782    0.0000 H   0  0  0  0  0  0  0  0  0  0  0  0
    1.3855    0.8000    0.0000 C   0  0  0  0  0  0  0  0  0  0  0  0
    0.7734    2.2782    0.0000 H   0  0  0  0  0  0  0  0  0  0  0  0
    1.9980    2.2782    0.0000 H   0  0  0  0  0  0  0  0  0  0  0  0
   -0.0001   -0.0000    0.0000 C   0  0  0  0  0  0  0  0  0  0  0  0
    0.6124   -1.4782    0.0000 H   0  0  0  0  0  0  0  0  0  0  0  0
   -0.6122   -1.4782    0.0000 H   0  0  0  0  0  0  0  0  0  0  0  0
   -1.3857    0.8000    0.0000 C   0  0  0  0  0  0  0  0  0  0  0  0
   -1.9979    2.2782    0.0000 H   0  0  0  0  0  0  0  0  0  0  0  0
   -0.7733    2.2782    0.0000 H   0  0  0  0  0  0  0  0  0  0  0  0
   -2.7713   -0.0000    0.0000 C   0  0  0  0  0  0  0  0  0  0  0  0
   -2.1589   -1.4782    0.0000 H   0  0  0  0  0  0  0  0  0  0  0  0
   -3.3835   -1.4782    0.0000 H   0  0  0  0  0  0  0  0  0  0  0  0
   -4.1569    0.8000    0.0000 C   0  0  0  0  0  0  0  0  0  0  0  0
   -5.5426    1.6000    0.0000 H   0  0  0  0  0  0  0  0  0  0  0  0
   -5.5426   -0.0000    0.0000 H   0  0  0  0  0  0  0  0  0  0  0  0
   -4.1569    2.4000    0.0000 H   0  0  0  0  0  0  0  0  0  0  0  0
  1  2  2  0  0  0  0
  1  3  1  0  0  0  0
  3  4  1  0  0  0  0
  4  5  1  0  0  0  0
  5  6  1  0  0  0  0
  5  7  2  0  0  0  0
  7  8  1  0  0  0  0
  7  9  1  0  0  0  0
  9 10  1  0  0  0  0
 10 11  3  0  0  0  0
  9 12  2  0  0  0  0
 12 13  1  0  0  0  0
 12 14  1  0  0  0  0
 14  4  2  0  0  0  0
 14 15  1  0  0  0  0
  1 16  1  0  0  0  0
 16 17  1  0  0  0  0
 16 18  1  0  0  0  0
 16 19  1  0  0  0  0
 19 20  1  0  0  0  0
 19 21  1  0  0  0  0
 19 22  1  0  0  0  0
 22 23  1  0  0  0  0
 22 24  1  0  0  0  0
 22 25  1  0  0  0  0
 25 26  1  0  0  0  0
 25 27  1  0  0  0  0
 25 28  1  0  0  0  0
 28 29  1  0  0  0  0
 28 30  1  0  0  0  0
 28 31  1  0  0  0  0
 31 32  1  0  0  0  0
 31 33  1  0  0  0  0
 31 34  1  0  0  0  0
 34 35  1  0  0  0  0
 34 36  1  0  0  0  0
 34 37  1  0  0  0  0
M  END
> <ChemID>
102007

> <source_casrn>
1689-99-2

> <CAS>
1689-99-2

> <SMILES>
CCCCCCCC(=O)Oc1c(Br)cc(cc1Br)C#N

> <NAME>
BROMOXYNIL OCTANOATE

> <preferred_name>
Bromoxynil octanoate

> <iupac>
2,6-dibromo-4-cyanophenyl octanoate

> <MPID>
26571

> <dsstox_substance_id>
DTXSID7023932

> <Canonical_QSARr>
CCCCCCCC(=O)Oc1c(Br)cc(cc1Br)C#N

> <InChI_Code_QSARr>
InChI=1S/C15H17Br2NO2/c1-2-3-4-5-6-7-14(19)20-15-12(16)8-11(10-18)9-13(15)17/h8-9H,2-7H2,1H3

> <InChI Key_QSARr>
DQKWXTIYGWPGOO-UHFFFAOYSA-N

> <Salt_Solvent>
?

> <LogVP>
-5.3188

$$$$
102011
  -INDIGO-08031723152D

 11 11  0  0  0  0  0  0  0  0999 V2000
    1.3856    0.8000    0.0000 O   0  0  0  0  0  0  0  0  0  0  0  0
    1.0529    2.3650    0.0000 C   0  0  0  0  0  0  0  0  0  0  0  0
    2.6442    2.5323    0.0000 H   0  0  0  0  0  0  0  0  0  0  0  0
    1.0529    3.9650    0.0000 H   0  0  0  0  0  0  0  0  0  0  0  0
   -0.5382    2.5323    0.0000 C   0  0  0  0  0  0  0  0  0  0  0  0
   -1.3382    3.9179    0.0000 H   0  0  0  0  0  0  0  0  0  0  0  0
   -1.1891    1.0706    0.0000 C   0  0  0  0  0  0  0  0  0  0  0  0
   -2.7541    0.7379    0.0000 H   0  0  0  0  0  0  0  0  0  0  0  0
   -0.0000    0.0000    0.0000 C   0  0  0  0  0  0  0  0  0  0  0  0
   -1.1891   -1.0706    0.0000 H   0  0  0  0  0  0  0  0  0  0  0  0
    0.9404   -1.2944    0.0000 H   0  0  0  0  0  0  0  0  0  0  0  0
  1  2  1  0  0  0  0
  2  3  1  0  0  0  0
  2  4  1  0  0  0  0
  2  5  1  0  0  0  0
  5  6  1  0  0  0  0
  5  7  2  0  0  0  0
  7  8  1  0  0  0  0
  7  9  1  0  0  0  0
  9  1  1  0  0  0  0
  9 10  1  0  0  0  0
  9 11  1  0  0  0  0
M  END
> <ChemID>
102011

> <source_casrn>
1708-29-8

> <CAS>
1708-29-8

> <SMILES>
C1C=CCO1

> <NAME>
2,5-DIHYDROFURAN

> <preferred_name>
2,5-Dihydrofuran

> <iupac>
2,5-dihydrofuran

> <MPID>
26575

> <dsstox_substance_id>
DTXSID5051785

> <Canonical_QSARr>
C1C=CCO1

> <InChI_Code_QSARr>
InChI=1S/C4H6O/c1-2-4-5-3-1/h1-2H,3-4H2

> <InChI Key_QSARr>
ARGCQEVBJHPOGB-UHFFFAOYSA-N

> <Salt_Solvent>
?

> <LogVP>
2.1987

$$$$
102015
  -INDIGO-08031723152D

 44 43  0  0  0  0  0  0  0  0999 V2000
    4.1568    0.8000    0.0000 C   0  0  0  0  0  0  0  0  0  0  0  0
    4.7691    2.2782    0.0000 H   0  0  0  0  0  0  0  0  0  0  0  0
    3.5445    2.2782    0.0000 H   0  0  0  0  0  0  0  0  0  0  0  0
    5.5425   -0.0000    0.0000 C   0  0  0  0  0  0  0  0  0  0  0  0
    4.9301   -1.4782    0.0000 H   0  0  0  0  0  0  0  0  0  0  0  0
    6.1548   -1.4782    0.0000 H   0  0  0  0  0  0  0  0  0  0  0  0
    6.9281    0.8000    0.0000 C   0  0  0  0  0  0  0  0  0  0  0  0
    7.5404    2.2782    0.0000 H   0  0  0  0  0  0  0  0  0  0  0  0
    6.3158    2.2782    0.0000 H   0  0  0  0  0  0  0  0  0  0  0  0
    8.3138   -0.0000    0.0000 C   0  0  0  0  0  0  0  0  0  0  0  0
    9.6994    0.8000    0.0000 O   0  0  0  0  0  0  0  0  0  0  0  0
   11.0851   -0.0000    0.0000 C   0  0  0  0  0  0  0  0  0  0  0  0
   12.4708   -0.8000    0.0000 H   0  0  0  0  0  0  0  0  0  0  0  0
   12.4708    0.8000    0.0000 H   0  0  0  0  0  0  0  0  0  0  0  0
   11.0851   -1.6000    0.0000 H   0  0  0  0  0  0  0  0  0  0  0  0
    8.3138   -1.6000    0.0000 O   0  0  0  0  0  0  0  0  0  0  0  0
    2.7711   -0.0000    0.0000 C   0  0  0  0  0  0  0  0  0  0  0  0
    2.1592   -1.4782    0.0000 H   0  0  0  0  0  0  0  0  0  0  0  0
    3.3834   -1.4782    0.0000 H   0  0  0  0  0  0  0  0  0  0  0  0
    1.3858    0.8000    0.0000 C   0  0  0  0  0  0  0  0  0  0  0  0
    1.9978    2.2782    0.0000 H   0  0  0  0  0  0  0  0  0  0  0  0
    0.7735    2.2782    0.0000 H   0  0  0  0  0  0  0  0  0  0  0  0
    0.0001   -0.0000    0.0000 C   0  0  0  0  0  0  0  0  0  0  0  0
   -0.6122   -1.4782    0.0000 H   0  0  0  0  0  0  0  0  0  0  0  0
    0.6121   -1.4782    0.0000 H   0  0  0  0  0  0  0  0  0  0  0  0
   -1.3855    0.8000    0.0000 C   0  0  0  0  0  0  0  0  0  0  0  0
   -0.7732    2.2782    0.0000 H   0  0  0  0  0  0  0  0  0  0  0  0
   -1.9978    2.2782    0.0000 H   0  0  0  0  0  0  0  0  0  0  0  0
   -2.7712   -0.0000    0.0000 C   0  0  0  0  0  0  0  0  0  0  0  0
   -3.3835   -1.4782    0.0000 H   0  0  0  0  0  0  0  0  0  0  0  0
   -2.1589   -1.4782    0.0000 H   0  0  0  0  0  0  0  0  0  0  0  0
   -4.1568    0.8000    0.0000 C   0  0  0  0  0  0  0  0  0  0  0  0
   -3.5445    2.2782    0.0000 H   0  0  0  0  0  0  0  0  0  0  0  0
   -4.7692    2.2782    0.0000 H   0  0  0  0  0  0  0  0  0  0  0  0
   -5.5425   -0.0000    0.0000 C   0  0  0  0  0  0  0  0  0  0  0  0
   -6.1548   -1.4782    0.0000 H   0  0  0  0  0  0  0  0  0  0  0  0
   -4.9302   -1.4782    0.0000 H   0  0  0  0  0  0  0  0  0  0  0  0
   -6.9282    0.8000    0.0000 C   0  0  0  0  0  0  0  0  0  0  0  0
   -6.3158    2.2782    0.0000 H   0  0  0  0  0  0  0  0  0  0  0  0
   -7.5405    2.2782    0.0000 H   0  0  0  0  0  0  0  0  0  0  0  0
   -8.3138   -0.0000    0.0000 C   0  0  0  0  0  0  0  0  0  0  0  0
   -9.6995   -0.8000    0.0000 H   0  0  0  0  0  0  0  0  0  0  0  0
   -9.6995    0.8000    0.0000 H   0  0  0  0  0  0  0  0  0  0  0  0
   -8.3138   -1.6000    0.0000 H   0  0  0  0  0  0  0  0  0  0  0  0
  1  2  1  0  0  0  0
  1  3  1  0  0  0  0
  1  4  1  0  0  0  0
  4  5  1  0  0  0  0
  4  6  1  0  0  0  0
  4  7  1  0  0  0  0
  7  8  1  0  0  0  0
  7  9  1  0  0  0  0
  7 10  1  0  0  0  0
 10 11  1  0  0  0  0
 11 12  1  0  0  0  0
 12 13  1  0  0  0  0
 12 14  1  0  0  0  0
 12 15  1  0  0  0  0
 10 16  2  0  0  0  0
  1 17  1  0  0  0  0
 17 18  1  0  0  0  0
 17 19  1  0  0  0  0
 17 20  1  0  0  0  0
 20 21  1  0  0  0  0
 20 22  1  0  0  0  0
 20 23  1  0  0  0  0
 23 24  1  0  0  0  0
 23 25  1  0  0  0  0
 23 26  1  0  0  0  0
 26 27  1  0  0  0  0
 26 28  1  0  0  0  0
 26 29  1  0  0  0  0
 29 30  1  0  0  0  0
 29 31  1  0  0  0  0
 29 32  1  0  0  0  0
 32 33  1  0  0  0  0
 32 34  1  0  0  0  0
 32 35  1  0  0  0  0
 35 36  1  0  0  0  0
 35 37  1  0  0  0  0
 35 38  1  0  0  0  0
 38 39  1  0  0  0  0
 38 40  1  0  0  0  0
 38 41  1  0  0  0  0
 41 42  1  0  0  0  0
 41 43  1  0  0  0  0
 41 44  1  0  0  0  0
M  END
> <ChemID>
102015

> <source_casrn>
1731-88-0

> <CAS>
1731-88-0

> <SMILES>
CCCCCCCCCCCCC(=O)OC

> <NAME>
METHYL TRIDECANOATE

> <preferred_name>
Methyl tridecanoate

> <iupac>
METHYL TRIDECANOATE

> <MPID>
26579

> <dsstox_substance_id>
DTXSID8061923

> <Canonical_QSARr>
CCCCCCCCCCCCC(=O)OC

> <InChI_Code_QSARr>
InChI=1S/C14H28O2/c1-3-4-5-6-7-8-9-10-11-12-13-14(15)16-2/h3-13H2,1-2H3

> <InChI Key_QSARr>
JNDDPBOKWCBQSM-UHFFFAOYSA-N

> <Salt_Solvent>
?

> <LogVP>
-2.8894

$$$$
102020
  -INDIGO-08031723152D

 12 12  0  0  0  0  0  0  0  0999 V2000
    0.0000   -0.0000    0.0000 C   0  0  0  0  0  0  0  0  0  0  0  0
    0.2778    1.5757    0.0000 H   0  0  0  0  0  0  0  0  0  0  0  0
   -0.8001   -1.3856    0.0000 C   0  0  0  0  0  0  0  0  0  0  0  0
    0.4257   -2.4141    0.0000 H   0  0  0  0  0  0  0  0  0  0  0  0
   -2.0257   -2.4141    0.0000 H   0  0  0  0  0  0  0  0  0  0  0  0
   -1.6000   -0.0000    0.0000 C   0  0  0  0  0  0  0  0  0  0  0  0
   -3.1035   -0.5472    0.0000 H   0  0  0  0  0  0  0  0  0  0  0  0
   -1.8778    1.5757    0.0000 H   0  0  0  0  0  0  0  0  0  0  0  0
    1.5035   -0.5472    0.0000 C   0  0  0  0  0  0  0  0  0  0  0  0
    1.7814   -2.1229    0.0000 O   0  0  0  0  0  0  0  0  0  0  0  0
    2.7292    0.4812    0.0000 O   0  0  0  0  0  0  0  0  0  0  0  0
    4.2327   -0.0660    0.0000 H   0  0  0  0  0  0  0  0  0  0  0  0
  1  2  1  0  0  0  0
  1  3  1  0  0  0  0
  3  4  1  0  0  0  0
  3  5  1  0  0  0  0
  3  6  1  0  0  0  0
  6  1  1  0  0  0  0
  6  7  1  0  0  0  0
  6  8  1  0  0  0  0
  1  9  1  0  0  0  0
  9 10  2  0  0  0  0
  9 11  1  0  0  0  0
 11 12  1  0  0  0  0
M  END
> <ChemID>
102020

> <source_casrn>
1759-53-1

> <CAS>
1759-53-1

> <SMILES>
OC(=O)C1CC1

> <NAME>
CYCLOPROPANECARBOXYLIC ACID

> <preferred_name>
Cyclopropane carboxylic acid

> <iupac>
cyclopropanecarboxylic acid

> <MPID>
26583

> <dsstox_substance_id>
DTXSID1040665

> <Canonical_QSARr>
OC(=O)C1CC1

> <InChI_Code_QSARr>
InChI=1S/C4H6O2/c5-4(6)3-1-2-3/h3H,1-2H2,(H,5,6)

> <InChI Key_QSARr>
YMGUBTXCNDTFJI-UHFFFAOYSA-N

> <Salt_Solvent>
?

> <LogVP>
-0.6198

$$$$
102028
  -INDIGO-08031723152D

 18 19  0  0  0  0  0  0  0  0999 V2000
    0.0001   -0.0000    0.0000 C   0  0  0  0  0  0  0  0  0  0  0  0
    1.3856    0.8000    0.0000 C   0  0  0  0  0  0  0  0  0  0  0  0
    1.3856    2.4000    0.0000 Cl  0  0  0  0  0  0  0  0  0  0  0  0
    2.7713   -0.0000    0.0000 C   0  0  0  0  0  0  0  0  0  0  0  0
    4.1569    0.8000    0.0000 H   0  0  0  0  0  0  0  0  0  0  0  0
    2.7713   -1.6000    0.0000 C   0  0  0  0  0  0  0  0  0  0  0  0
    4.1569   -2.4000    0.0000 H   0  0  0  0  0  0  0  0  0  0  0  0
    1.3856   -2.4000    0.0000 C   0  0  0  0  0  0  0  0  0  0  0  0
    1.3856   -4.0000    0.0000 Cl  0  0  0  0  0  0  0  0  0  0  0  0
    0.0001   -1.6000    0.0000 C   0  0  0  0  0  0  0  0  0  0  0  0
   -1.3856   -2.4000    0.0000 C   0  0  0  0  0  0  0  0  0  0  0  0
   -1.3856   -4.0000    0.0000 H   0  0  0  0  0  0  0  0  0  0  0  0
   -2.7712   -1.6000    0.0000 C   0  0  0  0  0  0  0  0  0  0  0  0
   -4.1569   -2.4000    0.0000 H   0  0  0  0  0  0  0  0  0  0  0  0
   -2.7712   -0.0000    0.0000 C   0  0  0  0  0  0  0  0  0  0  0  0
   -4.1569    0.8000    0.0000 H   0  0  0  0  0  0  0  0  0  0  0  0
   -1.3856    0.8000    0.0000 C   0  0  0  0  0  0  0  0  0  0  0  0
   -1.3856    2.4000    0.0000 H   0  0  0  0  0  0  0  0  0  0  0  0
  1  2  1  0  0  0  0
  2  3  1  0  0  0  0
  2  4  2  0  0  0  0
  4  5  1  0  0  0  0
  4  6  1  0  0  0  0
  6  7  1  0  0  0  0
  6  8  2  0  0  0  0
  8  9  1  0  0  0  0
  8 10  1  0  0  0  0
 10  1  1  0  0  0  0
 10 11  2  0  0  0  0
 11 12  1  0  0  0  0
 11 13  1  0  0  0  0
 13 14  1  0  0  0  0
 13 15  2  0  0  0  0
 15 16  1  0  0  0  0
 15 17  1  0  0  0  0
 17  1  2  0  0  0  0
 17 18  1  0  0  0  0
M  END
> <ChemID>
102028

> <source_casrn>
1825-31-6

> <CAS>
1825-31-6

> <SMILES>
Clc1ccc(Cl)c2ccccc12

> <NAME>
1,4-DICHLORONAPHTHALENE

> <preferred_name>
Naphthalene, 1,4-dichloro-

> <iupac>
1,4-DICHLORONAPHTHALENE

> <MPID>
26587

> <dsstox_substance_id>
DTXSID6061999

> <Canonical_QSARr>
Clc1ccc(Cl)c2ccccc12

> <InChI_Code_QSARr>
InChI=1S/C10H6Cl2/c11-9-5-6-10(12)8-4-2-1-3-7(8)9/h1-6H

> <InChI Key_QSARr>
JDPKCYMVSKDOGS-UHFFFAOYSA-N

> <Salt_Solvent>
?

> <LogVP>
-2.8539

$$$$
102032
  -INDIGO-08031723152D

 26 26  0  0  0  0  0  0  0  0999 V2000
    1.3856    0.8000    0.0000 C   0  0  0  0  0  0  0  0  0  0  0  0
    1.9980    2.2782    0.0000 H   0  0  0  0  0  0  0  0  0  0  0  0
    0.7733    2.2782    0.0000 H   0  0  0  0  0  0  0  0  0  0  0  0
   -0.0001   -0.0000    0.0000 C   0  0  0  0  0  0  0  0  0  0  0  0
    0.7999   -1.3856    0.0000 H   0  0  0  0  0  0  0  0  0  0  0  0
   -1.3856   -0.8000    0.0000 C   0  0  0  0  0  0  0  0  0  0  0  0
   -2.7713   -1.6000    0.0000 H   0  0  0  0  0  0  0  0  0  0  0  0
   -2.7713   -0.0000    0.0000 H   0  0  0  0  0  0  0  0  0  0  0  0
   -1.3856   -2.4000    0.0000 H   0  0  0  0  0  0  0  0  0  0  0  0
   -0.8000    1.3856    0.0000 O   0  0  0  0  0  0  0  0  0  0  0  0
   -2.4000    1.3856    0.0000 H   0  0  0  0  0  0  0  0  0  0  0  0
    2.7713   -0.0000    0.0000 O   0  0  0  0  0  0  0  0  0  0  0  0
    4.1569    0.8000    0.0000 C   0  0  0  0  0  0  0  0  0  0  0  0
    4.7692    2.2782    0.0000 H   0  0  0  0  0  0  0  0  0  0  0  0
    3.5447    2.2782    0.0000 H   0  0  0  0  0  0  0  0  0  0  0  0
    5.5426   -0.0000    0.0000 C   0  0  0  0  0  0  0  0  0  0  0  0
    6.9283    0.8000    0.0000 C   0  0  0  0  0  0  0  0  0  0  0  0
    6.9283    2.4000    0.0000 Cl  0  0  0  0  0  0  0  0  0  0  0  0
    8.3138   -0.0000    0.0000 C   0  0  0  0  0  0  0  0  0  0  0  0
    9.6995    0.8000    0.0000 Cl  0  0  0  0  0  0  0  0  0  0  0  0
    8.3138   -1.6000    0.0000 C   0  0  0  0  0  0  0  0  0  0  0  0
    9.6995   -2.4000    0.0000 H   0  0  0  0  0  0  0  0  0  0  0  0
    6.9283   -2.4000    0.0000 C   0  0  0  0  0  0  0  0  0  0  0  0
    6.9283   -4.0000    0.0000 H   0  0  0  0  0  0  0  0  0  0  0  0
    5.5426   -1.6000    0.0000 C   0  0  0  0  0  0  0  0  0  0  0  0
    4.1569   -2.4000    0.0000 Cl  0  0  0  0  0  0  0  0  0  0  0  0
  1  2  1  0  0  0  0
  1  3  1  0  0  0  0
  1  4  1  0  0  0  0
  4  5  1  0  0  0  0
  4  6  1  0  0  0  0
  6  7  1  0  0  0  0
  6  8  1  0  0  0  0
  6  9  1  0  0  0  0
  4 10  1  0  0  0  0
 10 11  1  0  0  0  0
  1 12  1  0  0  0  0
 12 13  1  0  0  0  0
 13 14  1  0  0  0  0
 13 15  1  0  0  0  0
 13 16  1  0  0  0  0
 16 17  1  0  0  0  0
 17 18  1  0  0  0  0
 17 19  2  0  0  0  0
 19 20  1  0  0  0  0
 19 21  1  0  0  0  0
 21 22  1  0  0  0  0
 21 23  2  0  0  0  0
 23 24  1  0  0  0  0
 23 25  1  0  0  0  0
 25 16  2  0  0  0  0
 25 26  1  0  0  0  0
M  END
> <ChemID>
102032

> <source_casrn>
1861-44-5

> <CAS>
1861-44-5

> <SMILES>
CC(O)COCc1c(Cl)c(Cl)ccc1Cl

> <NAME>
TRITAC

> <preferred_name>
Tritac

> <iupac>
1-[(2,3,6-trichlorobenzyl)oxy]propan-2-ol

> <MPID>
26591

> <dsstox_substance_id>
DTXSID3042506

> <Canonical_QSARr>
CC(O)COCc1c(Cl)c(Cl)ccc1Cl

> <InChI_Code_QSARr>
InChI=1S/C10H11Cl3O2/c1-6(14)4-15-5-7-8(11)2-3-9(12)10(7)13/h2-3,6,14H,4-5H2,1H3

> <InChI Key_QSARr>
LJWIIRATRWPHBA-UHFFFAOYSA-N

> <Salt_Solvent>
?

> <LogVP>
-4.0

$$$$
102036
  -INDIGO-08031723152D

 12 11  0  0  0  0  0  0  0  0999 V2000
   -1.3856    0.8000    0.0000 C   0  0  0  0  0  0  0  0  0  0  0  0
    0.0000    0.0000    0.0000 C   0  0  0  0  0  0  0  0  0  0  0  0
   -0.6123   -1.4782    0.0000 H   0  0  0  0  0  0  0  0  0  0  0  0
    0.6123   -1.4782    0.0000 H   0  0  0  0  0  0  0  0  0  0  0  0
    1.3856    0.8000    0.0000 O   0  0  0  0  0  0  0  0  0  0  0  0
    2.7713    0.0000    0.0000 C   0  0  0  0  0  0  0  0  0  0  0  0
    4.1569   -0.8000    0.0000 H   0  0  0  0  0  0  0  0  0  0  0  0
    4.1569    0.8000    0.0000 F   0  0  0  0  0  0  0  0  0  0  0  0
    2.7713   -1.6000    0.0000 F   0  0  0  0  0  0  0  0  0  0  0  0
   -2.7713    1.6000    0.0000 F   0  0  0  0  0  0  0  0  0  0  0  0
   -2.7713    0.0000    0.0000 F   0  0  0  0  0  0  0  0  0  0  0  0
   -1.3856    2.4000    0.0000 F   0  0  0  0  0  0  0  0  0  0  0  0
  1  2  1  0  0  0  0
  2  3  1  0  0  0  0
  2  4  1  0  0  0  0
  2  5  1  0  0  0  0
  5  6  1  0  0  0  0
  6  7  1  0  0  0  0
  6  8  1  0  0  0  0
  6  9  1  0  0  0  0
  1 10  1  0  0  0  0
  1 11  1  0  0  0  0
  1 12  1  0  0  0  0
M  END
> <ChemID>
102036

> <source_casrn>
1885-48-9

> <CAS>
1885-48-9

> <SMILES>
FC(F)OCC(F)(F)F

> <NAME>
Difluoromethyl 2,2,2-trifluoroethyl ether

> <preferred_name>
Ethane, 2-(difluoromethoxy)-1,1,1-trifluoro-

> <iupac>
2-(Difluoromethoxy)-1,1,1-trifluoroethane

> <MPID>
26595

> <dsstox_substance_id>
DTXSID5073951

> <Canonical_QSARr>
FC(F)OCC(F)(F)F

> <InChI_Code_QSARr>
InChI=1S/C3H3F5O/c4-2(5)9-1-3(6,7)8/h2H,1H2

> <InChI Key_QSARr>
ZASBKNPRLPFSCA-UHFFFAOYSA-N

> <Salt_Solvent>
?

> <LogVP>
2.8096

$$$$
102040
  -INDIGO-08031723152D

 19 19  0  0  0  0  0  0  0  0999 V2000
   -0.0000    0.0000    0.0000 C   0  0  0  0  0  0  0  0  0  0  0  0
    0.8000    1.3856    0.0000 C   0  0  0  0  0  0  0  0  0  0  0  0
   -0.0000    2.7713    0.0000 O   0  0  0  0  0  0  0  0  0  0  0  0
    2.4000    1.3856    0.0000 O   0  0  0  0  0  0  0  0  0  0  0  0
    3.2000    2.7713    0.0000 H   0  0  0  0  0  0  0  0  0  0  0  0
   -1.6000    0.0000    0.0000 C   0  0  0  0  0  0  0  0  0  0  0  0
   -2.4000    1.3856    0.0000 O   0  0  0  0  0  0  0  0  0  0  0  0
   -4.0001    1.3856    0.0000 C   0  0  0  0  0  0  0  0  0  0  0  0
   -4.8000    2.7713    0.0000 H   0  0  0  0  0  0  0  0  0  0  0  0
   -5.6000    1.3856    0.0000 H   0  0  0  0  0  0  0  0  0  0  0  0
   -3.2000    2.7713    0.0000 H   0  0  0  0  0  0  0  0  0  0  0  0
   -2.4000   -1.3856    0.0000 C   0  0  0  0  0  0  0  0  0  0  0  0
   -4.0001   -1.3856    0.0000 Cl  0  0  0  0  0  0  0  0  0  0  0  0
   -1.6000   -2.7713    0.0000 C   0  0  0  0  0  0  0  0  0  0  0  0
   -2.4000   -4.1569    0.0000 H   0  0  0  0  0  0  0  0  0  0  0  0
   -0.0000   -2.7713    0.0000 C   0  0  0  0  0  0  0  0  0  0  0  0
    0.8000   -4.1569    0.0000 H   0  0  0  0  0  0  0  0  0  0  0  0
    0.8000   -1.3856    0.0000 C   0  0  0  0  0  0  0  0  0  0  0  0
    2.4000   -1.3856    0.0000 Cl  0  0  0  0  0  0  0  0  0  0  0  0
  1  2  1  0  0  0  0
  2  3  2  0  0  0  0
  2  4  1  0  0  0  0
  4  5  1  0  0  0  0
  1  6  1  0  0  0  0
  6  7  1  0  0  0  0
  7  8  1  0  0  0  0
  8  9  1  0  0  0  0
  8 10  1  0  0  0  0
  8 11  1  0  0  0  0
  6 12  2  0  0  0  0
 12 13  1  0  0  0  0
 12 14  1  0  0  0  0
 14 15  1  0  0  0  0
 14 16  2  0  0  0  0
 16 17  1  0  0  0  0
 16 18  1  0  0  0  0
 18  1  2  0  0  0  0
 18 19  1  0  0  0  0
M  END
> <ChemID>
102040

> <source_casrn>
1918-00-9

> <CAS>
1918-00-9

> <SMILES>
COc1c(C(O)=O)c(Cl)ccc1Cl

> <NAME>
DICAMBA

> <preferred_name>
Dicamba

> <iupac>
3,6-dichloro-2-methoxybenzoic acid

> <MPID>
26599

> <dsstox_substance_id>
DTXSID4024018

> <Canonical_QSARr>
COc1c(C(O)=O)c(Cl)ccc1Cl

> <InChI_Code_QSARr>
InChI=1S/C8H6Cl2O3/c1-13-7-5(10)3-2-4(9)6(7)8(11)12/h2-3H,1H3,(H,11,12)

> <InChI Key_QSARr>
IWEDIXLBFLAXBO-UHFFFAOYSA-N

> <Salt_Solvent>
?

> <LogVP>
-4.4711

$$$$
102044
  -INDIGO-08031723152D

 22 22  0  0  0  0  0  0  0  0999 V2000
   -4.1569    0.8000    0.0000 C   0  0  0  0  0  0  0  0  0  0  0  0
   -4.1569    2.4000    0.0000 O   0  0  0  0  0  0  0  0  0  0  0  0
   -5.5426   -0.0000    0.0000 O   0  0  0  0  0  0  0  0  0  0  0  0
   -6.9281    0.8000    0.0000 C   0  0  0  0  0  0  0  0  0  0  0  0
   -8.3138    1.6000    0.0000 H   0  0  0  0  0  0  0  0  0  0  0  0
   -8.3138   -0.0000    0.0000 H   0  0  0  0  0  0  0  0  0  0  0  0
   -6.9281    2.4000    0.0000 H   0  0  0  0  0  0  0  0  0  0  0  0
   -2.7712   -0.0000    0.0000 C   0  0  0  0  0  0  0  0  0  0  0  0
   -2.1590   -1.4782    0.0000 H   0  0  0  0  0  0  0  0  0  0  0  0
   -3.3836   -1.4782    0.0000 H   0  0  0  0  0  0  0  0  0  0  0  0
   -1.3857    0.8000    0.0000 O   0  0  0  0  0  0  0  0  0  0  0  0
    0.0000   -0.0000    0.0000 C   0  0  0  0  0  0  0  0  0  0  0  0
    0.0000   -1.6000    0.0000 C   0  0  0  0  0  0  0  0  0  0  0  0
   -1.3857   -2.4000    0.0000 Cl  0  0  0  0  0  0  0  0  0  0  0  0
    1.3857   -2.4000    0.0000 C   0  0  0  0  0  0  0  0  0  0  0  0
    1.3857   -4.0000    0.0000 H   0  0  0  0  0  0  0  0  0  0  0  0
    2.7712   -1.6000    0.0000 C   0  0  0  0  0  0  0  0  0  0  0  0
    4.1569   -2.4000    0.0000 Cl  0  0  0  0  0  0  0  0  0  0  0  0
    2.7712   -0.0000    0.0000 C   0  0  0  0  0  0  0  0  0  0  0  0
    4.1569    0.8000    0.0000 H   0  0  0  0  0  0  0  0  0  0  0  0
    1.3857    0.8000    0.0000 C   0  0  0  0  0  0  0  0  0  0  0  0
    1.3857    2.4000    0.0000 H   0  0  0  0  0  0  0  0  0  0  0  0
  1  2  2  0  0  0  0
  1  3  1  0  0  0  0
  3  4  1  0  0  0  0
  4  5  1  0  0  0  0
  4  6  1  0  0  0  0
  4  7  1  0  0  0  0
  1  8  1  0  0  0  0
  8  9  1  0  0  0  0
  8 10  1  0  0  0  0
  8 11  1  0  0  0  0
 11 12  1  0  0  0  0
 12 13  1  0  0  0  0
 13 14  1  0  0  0  0
 13 15  2  0  0  0  0
 15 16  1  0  0  0  0
 15 17  1  0  0  0  0
 17 18  1  0  0  0  0
 17 19  2  0  0  0  0
 19 20  1  0  0  0  0
 19 21  1  0  0  0  0
 21 12  2  0  0  0  0
 21 22  1  0  0  0  0
M  END
> <ChemID>
102044

> <source_casrn>
1928-38-7

> <CAS>
1928-38-7

> <SMILES>
COC(=O)COc1ccc(Cl)cc1Cl

> <NAME>
2,4-D, METHYL ESTER

> <preferred_name>
2,4-D-methyl

> <iupac>
methyl (2,4-dichlorophenoxy)acetate

> <MPID>
26603

> <dsstox_substance_id>
DTXSID6041349

> <Canonical_QSARr>
COC(=O)COc1ccc(Cl)cc1Cl

> <InChI_Code_QSARr>
InChI=1S/C9H8Cl2O3/c1-13-9(12)5-14-8-3-2-6(10)4-7(8)11/h2-4H,5H2,1H3

> <InChI Key_QSARr>
HWIGZMADSFQMOI-UHFFFAOYSA-N

> <Salt_Solvent>
?

> <LogVP>
-2.6383

$$$$
102048
  -INDIGO-08031723152D

 14 14  0  0  0  0  0  0  0  0999 V2000
   -1.6000   -0.0000    0.0000 C   0  0  0  0  0  0  0  0  0  0  0  0
    0.0000   -0.0000    0.0000 C   0  0  0  0  0  0  0  0  0  0  0  0
    0.8001    1.3856    0.0000 N   0  0  0  0  0  0  0  0  0  0  0  0
    2.4001    1.3856    0.0000 C   0  0  0  0  0  0  0  0  0  0  0  0
    3.2000    2.7713    0.0000 Cl  0  0  0  0  0  0  0  0  0  0  0  0
    3.2000   -0.0000    0.0000 C   0  0  0  0  0  0  0  0  0  0  0  0
    4.8000   -0.0000    0.0000 H   0  0  0  0  0  0  0  0  0  0  0  0
    2.4001   -1.3856    0.0000 C   0  0  0  0  0  0  0  0  0  0  0  0
    3.2000   -2.7713    0.0000 H   0  0  0  0  0  0  0  0  0  0  0  0
    0.8001   -1.3856    0.0000 C   0  0  0  0  0  0  0  0  0  0  0  0
    0.0000   -2.7713    0.0000 H   0  0  0  0  0  0  0  0  0  0  0  0
   -3.2000   -0.0000    0.0000 Cl  0  0  0  0  0  0  0  0  0  0  0  0
   -2.4001    1.3856    0.0000 Cl  0  0  0  0  0  0  0  0  0  0  0  0
   -2.3999   -1.3856    0.0000 Cl  0  0  0  0  0  0  0  0  0  0  0  0
  1  2  1  0  0  0  0
  2  3  1  0  0  0  0
  3  4  2  0  0  0  0
  4  5  1  0  0  0  0
  4  6  1  0  0  0  0
  6  7  1  0  0  0  0
  6  8  2  0  0  0  0
  8  9  1  0  0  0  0
  8 10  1  0  0  0  0
 10  2  2  0  0  0  0
 10 11  1  0  0  0  0
  1 12  1  0  0  0  0
  1 13  1  0  0  0  0
  1 14  1  0  0  0  0
M  END
> <ChemID>
102048

> <source_casrn>
1929-82-4

> <CAS>
1929-82-4

> <SMILES>
Clc1cccc([n]1)C(Cl)(Cl)Cl

> <NAME>
NITRAPYRIN

> <preferred_name>
Nitrapyrin

> <iupac>
2-chloro-6-(trichloromethyl)pyridine

> <MPID>
26607

> <dsstox_substance_id>
DTXSID0024216

> <Canonical_QSARr>
Clc1cccc([n]1)C(Cl)(Cl)Cl

> <InChI_Code_QSARr>
InChI=1S/C6H3Cl4N/c7-5-3-1-2-4(11-5)6(8,9)10/h1-3H

> <InChI Key_QSARr>
DCUJJWWUNKIJPH-UHFFFAOYSA-N

> <Salt_Solvent>
?

> <LogVP>
-2.3188

$$$$
102052
  -INDIGO-08031723152D

 35 36  0  0  0  0  0  0  0  0999 V2000
    1.3855   -0.8000    0.0000 C   0  0  0  0  0  0  0  0  0  0  0  0
    1.3855   -2.4000    0.0000 O   0  0  0  0  0  0  0  0  0  0  0  0
    0.0000   -0.0000    0.0000 N   0  0  0  0  0  0  0  0  0  0  0  0
   -1.3858   -0.8000    0.0000 C   0  0  0  0  0  0  0  0  0  0  0  0
   -2.7713   -1.6000    0.0000 H   0  0  0  0  0  0  0  0  0  0  0  0
   -2.7713   -0.0000    0.0000 H   0  0  0  0  0  0  0  0  0  0  0  0
   -1.3858   -2.4000    0.0000 H   0  0  0  0  0  0  0  0  0  0  0  0
    0.0000    1.6000    0.0000 C   0  0  0  0  0  0  0  0  0  0  0  0
    0.0000    3.2000    0.0000 H   0  0  0  0  0  0  0  0  0  0  0  0
   -1.3858    2.4000    0.0000 H   0  0  0  0  0  0  0  0  0  0  0  0
    1.3855    2.4000    0.0000 H   0  0  0  0  0  0  0  0  0  0  0  0
    2.7713   -0.0000    0.0000 N   0  0  0  0  0  0  0  0  0  0  0  0
    2.7713    1.6000    0.0000 H   0  0  0  0  0  0  0  0  0  0  0  0
    4.1568   -0.8000    0.0000 C   0  0  0  0  0  0  0  0  0  0  0  0
    4.1568   -2.4000    0.0000 C   0  0  0  0  0  0  0  0  0  0  0  0
    2.7713   -3.2000    0.0000 H   0  0  0  0  0  0  0  0  0  0  0  0
    5.5426   -3.2000    0.0000 C   0  0  0  0  0  0  0  0  0  0  0  0
    5.5426   -4.8000    0.0000 H   0  0  0  0  0  0  0  0  0  0  0  0
    6.9281   -2.4000    0.0000 C   0  0  0  0  0  0  0  0  0  0  0  0
    8.3139   -3.2000    0.0000 O   0  0  0  0  0  0  0  0  0  0  0  0
    9.8896   -2.9221    0.0000 C   0  0  0  0  0  0  0  0  0  0  0  0
   10.9180   -4.1478    0.0000 C   0  0  0  0  0  0  0  0  0  0  0  0
   10.3707   -5.6513    0.0000 H   0  0  0  0  0  0  0  0  0  0  0  0
   12.4938   -3.8700    0.0000 C   0  0  0  0  0  0  0  0  0  0  0  0
   13.5222   -5.0957    0.0000 H   0  0  0  0  0  0  0  0  0  0  0  0
   13.0409   -2.3665    0.0000 C   0  0  0  0  0  0  0  0  0  0  0  0
   14.6166   -2.0887    0.0000 Cl  0  0  0  0  0  0  0  0  0  0  0  0
   12.0125   -1.1408    0.0000 C   0  0  0  0  0  0  0  0  0  0  0  0
   12.5596    0.3627    0.0000 H   0  0  0  0  0  0  0  0  0  0  0  0
   10.4367   -1.4186    0.0000 C   0  0  0  0  0  0  0  0  0  0  0  0
    9.4083   -0.1930    0.0000 H   0  0  0  0  0  0  0  0  0  0  0  0
    6.9281   -0.8000    0.0000 C   0  0  0  0  0  0  0  0  0  0  0  0
    8.3139   -0.0000    0.0000 H   0  0  0  0  0  0  0  0  0  0  0  0
    5.5426   -0.0000    0.0000 C   0  0  0  0  0  0  0  0  0  0  0  0
    5.5426    1.6000    0.0000 H   0  0  0  0  0  0  0  0  0  0  0  0
  1  2  2  0  0  0  0
  1  3  1  0  0  0  0
  3  4  1  0  0  0  0
  4  5  1  0  0  0  0
  4  6  1  0  0  0  0
  4  7  1  0  0  0  0
  3  8  1  0  0  0  0
  8  9  1  0  0  0  0
  8 10  1  0  0  0  0
  8 11  1  0  0  0  0
  1 12  1  0  0  0  0
 12 13  1  0  0  0  0
 12 14  1  0  0  0  0
 14 15  1  0  0  0  0
 15 16  1  0  0  0  0
 15 17  2  0  0  0  0
 17 18  1  0  0  0  0
 17 19  1  0  0  0  0
 19 20  1  0  0  0  0
 20 21  1  0  0  0  0
 21 22  1  0  0  0  0
 22 23  1  0  0  0  0
 22 24  2  0  0  0  0
 24 25  1  0  0  0  0
 24 26  1  0  0  0  0
 26 27  1  0  0  0  0
 26 28  2  0  0  0  0
 28 29  1  0  0  0  0
 28 30  1  0  0  0  0
 30 21  2  0  0  0  0
 30 31  1  0  0  0  0
 19 32  2  0  0  0  0
 32 33  1  0  0  0  0
 32 34  1  0  0  0  0
 34 14  2  0  0  0  0
 34 35  1  0  0  0  0
M  END
> <ChemID>
102052

> <source_casrn>
1982-47-4

> <CAS>
1982-47-4

> <SMILES>
CN(C)C(=O)Nc1ccc(cc1)Oc1ccc(Cl)cc1

> <NAME>
CHLOROXURON

> <preferred_name>
Chloroxuron

> <iupac>
3-[4-(4-chlorophenoxy)phenyl]-1,1-dimethylurea

> <MPID>
26611

> <dsstox_substance_id>
DTXSID7040287

> <Canonical_QSARr>
CN(C)C(=O)Nc1ccc(cc1)Oc1ccc(Cl)cc1

> <InChI_Code_QSARr>
InChI=1S/C15H15ClN2O2/c1-18(2)15(19)17-12-5-9-14(10-6-12)20-13-7-3-11(16)4-8-13/h3-10H,1-2H3,(H,17,19)

> <InChI Key_QSARr>
IVUXTESCPZUGJC-UHFFFAOYSA-N

> <Salt_Solvent>
?

> <LogVP>
-8.4089

$$$$
102058
  -INDIGO-08031723152D

 34 33  0  0  0  0  0  0  0  0999 V2000
    6.9283    0.8000    0.0000 C   0  0  0  0  0  0  0  0  0  0  0  0
    8.3138    1.6000    0.0000 H   0  0  0  0  0  0  0  0  0  0  0  0
    8.3138    0.0000    0.0000 H   0  0  0  0  0  0  0  0  0  0  0  0
    6.9283    2.4000    0.0000 H   0  0  0  0  0  0  0  0  0  0  0  0
    5.5427    0.0000    0.0000 C   0  0  0  0  0  0  0  0  0  0  0  0
    6.1549   -1.4782    0.0000 H   0  0  0  0  0  0  0  0  0  0  0  0
    4.9302   -1.4782    0.0000 H   0  0  0  0  0  0  0  0  0  0  0  0
    4.1569    0.8000    0.0000 C   0  0  0  0  0  0  0  0  0  0  0  0
    3.5446    2.2782    0.0000 H   0  0  0  0  0  0  0  0  0  0  0  0
    4.7691    2.2782    0.0000 H   0  0  0  0  0  0  0  0  0  0  0  0
    2.7713    0.0000    0.0000 C   0  0  0  0  0  0  0  0  0  0  0  0
    3.3835   -1.4782    0.0000 H   0  0  0  0  0  0  0  0  0  0  0  0
    2.1590   -1.4782    0.0000 H   0  0  0  0  0  0  0  0  0  0  0  0
    1.3857    0.8000    0.0000 C   0  0  0  0  0  0  0  0  0  0  0  0
    0.7735    2.2782    0.0000 H   0  0  0  0  0  0  0  0  0  0  0  0
    1.9979    2.2782    0.0000 H   0  0  0  0  0  0  0  0  0  0  0  0
    0.0001    0.0000    0.0000 C   0  0  0  0  0  0  0  0  0  0  0  0
    0.6124   -1.4782    0.0000 H   0  0  0  0  0  0  0  0  0  0  0  0
   -0.6124   -1.4782    0.0000 H   0  0  0  0  0  0  0  0  0  0  0  0
   -1.3857    0.8000    0.0000 C   0  0  0  0  0  0  0  0  0  0  0  0
   -1.9979    2.2782    0.0000 H   0  0  0  0  0  0  0  0  0  0  0  0
   -0.7735    2.2782    0.0000 H   0  0  0  0  0  0  0  0  0  0  0  0
   -2.7713    0.0000    0.0000 C   0  0  0  0  0  0  0  0  0  0  0  0
   -2.1590   -1.4782    0.0000 H   0  0  0  0  0  0  0  0  0  0  0  0
   -3.3835   -1.4782    0.0000 H   0  0  0  0  0  0  0  0  0  0  0  0
   -4.1569    0.8000    0.0000 C   0  0  0  0  0  0  0  0  0  0  0  0
   -4.7691    2.2782    0.0000 H   0  0  0  0  0  0  0  0  0  0  0  0
   -3.5446    2.2782    0.0000 H   0  0  0  0  0  0  0  0  0  0  0  0
   -5.5427    0.0000    0.0000 C   0  0  0  0  0  0  0  0  0  0  0  0
   -4.9302   -1.4782    0.0000 H   0  0  0  0  0  0  0  0  0  0  0  0
   -6.1549   -1.4782    0.0000 H   0  0  0  0  0  0  0  0  0  0  0  0
   -6.9283    0.8000    0.0000 N   0  0  0  0  0  0  0  0  0  0  0  0
   -8.3138    0.0000    0.0000 H   0  0  0  0  0  0  0  0  0  0  0  0
   -6.9283    2.4000    0.0000 H   0  0  0  0  0  0  0  0  0  0  0  0
  1  2  1  0  0  0  0
  1  3  1  0  0  0  0
  1  4  1  0  0  0  0
  1  5  1  0  0  0  0
  5  6  1  0  0  0  0
  5  7  1  0  0  0  0
  5  8  1  0  0  0  0
  8  9  1  0  0  0  0
  8 10  1  0  0  0  0
  8 11  1  0  0  0  0
 11 12  1  0  0  0  0
 11 13  1  0  0  0  0
 11 14  1  0  0  0  0
 14 15  1  0  0  0  0
 14 16  1  0  0  0  0
 14 17  1  0  0  0  0
 17 18  1  0  0  0  0
 17 19  1  0  0  0  0
 17 20  1  0  0  0  0
 20 21  1  0  0  0  0
 20 22  1  0  0  0  0
 20 23  1  0  0  0  0
 23 24  1  0  0  0  0
 23 25  1  0  0  0  0
 23 26  1  0  0  0  0
 26 27  1  0  0  0  0
 26 28  1  0  0  0  0
 26 29  1  0  0  0  0
 29 30  1  0  0  0  0
 29 31  1  0  0  0  0
 29 32  1  0  0  0  0
 32 33  1  0  0  0  0
 32 34  1  0  0  0  0
M  END
> <ChemID>
102058

> <source_casrn>
2016-57-1

> <CAS>
2016-57-1

> <SMILES>
CCCCCCCCCCN

> <NAME>
N-DECYLAMINE

> <preferred_name>
1-Decanamine

> <iupac>
decan-1-amine

> <MPID>
26616

> <dsstox_substance_id>
DTXSID2022171

> <Canonical_QSARr>
CCCCCCCCCCN

> <InChI_Code_QSARr>
InChI=1S/C10H23N/c1-2-3-4-5-6-7-8-9-10-11/h2-11H2,1H3

> <InChI Key_QSARr>
MHZGKXUYDGKKIU-UHFFFAOYSA-N

> <Salt_Solvent>
?

> <LogVP>
-1.0

$$$$
102062
  -INDIGO-08031723152D

 16 16  0  0  0  0  0  0  0  0999 V2000
    0.0001   -0.0000    0.0000 C   0  0  0  0  0  0  0  0  0  0  0  0
    0.0001   -1.6000    0.0000 C   0  0  0  0  0  0  0  0  0  0  0  0
    1.3856   -2.4000    0.0000 H   0  0  0  0  0  0  0  0  0  0  0  0
   -1.3856   -2.4000    0.0000 C   0  0  0  0  0  0  0  0  0  0  0  0
   -1.3856   -4.0000    0.0000 Cl  0  0  0  0  0  0  0  0  0  0  0  0
   -2.7712   -1.6000    0.0000 C   0  0  0  0  0  0  0  0  0  0  0  0
   -4.1569   -2.4000    0.0000 H   0  0  0  0  0  0  0  0  0  0  0  0
   -2.7712   -0.0000    0.0000 C   0  0  0  0  0  0  0  0  0  0  0  0
   -4.1569    0.8000    0.0000 H   0  0  0  0  0  0  0  0  0  0  0  0
   -1.3856    0.8000    0.0000 C   0  0  0  0  0  0  0  0  0  0  0  0
   -1.3856    2.4000    0.0000 H   0  0  0  0  0  0  0  0  0  0  0  0
    1.3856    0.8000    0.0000 C   0  0  0  0  0  0  0  0  0  0  0  0
    1.3856    2.4000    0.0000 H   0  0  0  0  0  0  0  0  0  0  0  0
    2.7713   -0.0000    0.0000 C   0  0  0  0  0  0  0  0  0  0  0  0
    4.1569    0.8000    0.0000 H   0  0  0  0  0  0  0  0  0  0  0  0
    2.7713   -1.6000    0.0000 H   0  0  0  0  0  0  0  0  0  0  0  0
  1  2  1  0  0  0  0
  2  3  1  0  0  0  0
  2  4  2  0  0  0  0
  4  5  1  0  0  0  0
  4  6  1  0  0  0  0
  6  7  1  0  0  0  0
  6  8  2  0  0  0  0
  8  9  1  0  0  0  0
  8 10  1  0  0  0  0
 10  1  2  0  0  0  0
 10 11  1  0  0  0  0
  1 12  1  0  0  0  0
 12 13  1  0  0  0  0
 12 14  2  0  0  0  0
 14 15  1  0  0  0  0
 14 16  1  0  0  0  0
M  END
> <ChemID>
102062

> <source_casrn>
2039-85-2

> <CAS>
2039-85-2

> <SMILES>
C=Cc1cccc(Cl)c1

> <NAME>
M-CHLOROSTYRENE

> <preferred_name>
m-Chlorostyrene

> <iupac>
1-chloro-3-ethenylbenzene

> <MPID>
26620

> <dsstox_substance_id>
DTXSID8073130

> <Canonical_QSARr>
C=Cc1cccc(Cl)c1

> <InChI_Code_QSARr>
InChI=1S/C8H7Cl/c1-2-7-4-3-5-8(9)6-7/h2-6H,1H2

> <InChI Key_QSARr>
BOVQCIDBZXNFEJ-UHFFFAOYSA-N

> <Salt_Solvent>
?

> <LogVP>
-0.0083

$$$$
102066
  -INDIGO-08031723152D

 24 24  0  0  0  0  0  0  0  0999 V2000
    0.0000    0.0000    0.0000 C   0  0  0  0  0  0  0  0  0  0  0  0
    0.6508    1.4617    0.0000 H   0  0  0  0  0  0  0  0  0  0  0  0
   -0.3326   -1.5650    0.0000 C   0  0  0  0  0  0  0  0  0  0  0  0
    1.2586   -1.7323    0.0000 H   0  0  0  0  0  0  0  0  0  0  0  0
   -0.3326   -3.1651    0.0000 H   0  0  0  0  0  0  0  0  0  0  0  0
   -1.9239   -1.7323    0.0000 C   0  0  0  0  0  0  0  0  0  0  0  0
   -1.5912   -3.2973    0.0000 H   0  0  0  0  0  0  0  0  0  0  0  0
   -3.4456   -2.2267    0.0000 H   0  0  0  0  0  0  0  0  0  0  0  0
   -2.5746   -0.2706    0.0000 C   0  0  0  0  0  0  0  0  0  0  0  0
   -3.9603   -1.0706    0.0000 H   0  0  0  0  0  0  0  0  0  0  0  0
   -3.5151    1.0239    0.0000 H   0  0  0  0  0  0  0  0  0  0  0  0
   -1.3857    0.8000    0.0000 C   0  0  0  0  0  0  0  0  0  0  0  0
   -2.5746    1.8706    0.0000 H   0  0  0  0  0  0  0  0  0  0  0  0
   -0.4452    2.0944    0.0000 H   0  0  0  0  0  0  0  0  0  0  0  0
    1.5216   -0.4945    0.0000 C   0  0  0  0  0  0  0  0  0  0  0  0
    2.2105    0.9497    0.0000 H   0  0  0  0  0  0  0  0  0  0  0  0
    3.0299    0.0396    0.0000 H   0  0  0  0  0  0  0  0  0  0  0  0
    2.3695   -1.8513    0.0000 C   0  0  0  0  0  0  0  0  0  0  0  0
    2.2162   -3.4439    0.0000 H   0  0  0  0  0  0  0  0  0  0  0  0
    1.1349   -2.8690    0.0000 H   0  0  0  0  0  0  0  0  0  0  0  0
    3.9686   -1.7955    0.0000 C   0  0  0  0  0  0  0  0  0  0  0  0
    5.5676   -1.7396    0.0000 H   0  0  0  0  0  0  0  0  0  0  0  0
    4.8164   -3.1524    0.0000 H   0  0  0  0  0  0  0  0  0  0  0  0
    4.7197   -0.3827    0.0000 H   0  0  0  0  0  0  0  0  0  0  0  0
  1  2  1  0  0  0  0
  1  3  1  0  0  0  0
  3  4  1  0  0  0  0
  3  5  1  0  0  0  0
  3  6  1  0  0  0  0
  6  7  1  0  0  0  0
  6  8  1  0  0  0  0
  6  9  1  0  0  0  0
  9 10  1  0  0  0  0
  9 11  1  0  0  0  0
  9 12  1  0  0  0  0
 12  1  1  0  0  0  0
 12 13  1  0  0  0  0
 12 14  1  0  0  0  0
  1 15  1  0  0  0  0
 15 16  1  0  0  0  0
 15 17  1  0  0  0  0
 15 18  1  0  0  0  0
 18 19  1  0  0  0  0
 18 20  1  0  0  0  0
 18 21  1  0  0  0  0
 21 22  1  0  0  0  0
 21 23  1  0  0  0  0
 21 24  1  0  0  0  0
M  END
> <ChemID>
102066

> <source_casrn>
2040-96-2

> <CAS>
2040-96-2

> <SMILES>
CCCC1CCCC1

> <NAME>
PROPYLCYCLOPENTANE

> <preferred_name>
Cyclopentane, propyl-

> <iupac>
Propylcyclopentane

> <MPID>
26624

> <dsstox_substance_id>
DTXSID60174352

> <Canonical_QSARr>
CCCC1CCCC1

> <InChI_Code_QSARr>
InChI=1S/C8H16/c1-2-5-8-6-3-4-7-8/h8H,2-7H2,1H3

> <InChI Key_QSARr>
KDIAMAVWIJYWHN-UHFFFAOYSA-N

> <Salt_Solvent>
?

> <LogVP>
1.092

$$$$
102070
  -INDIGO-08031723152D

 22 23  0  0  0  0  0  0  0  0999 V2000
   -0.0001    0.0000    0.0000 C   0  0  0  0  0  0  0  0  0  0  0  0
    1.6001   -0.0000    0.0000 C   0  0  0  0  0  0  0  0  0  0  0  0
    2.4001   -1.3856    0.0000 C   0  0  0  0  0  0  0  0  0  0  0  0
    1.6001   -2.7713    0.0000 H   0  0  0  0  0  0  0  0  0  0  0  0
    4.0000   -1.3856    0.0000 C   0  0  0  0  0  0  0  0  0  0  0  0
    4.8000   -2.7713    0.0000 H   0  0  0  0  0  0  0  0  0  0  0  0
    4.8000    0.0000    0.0000 C   0  0  0  0  0  0  0  0  0  0  0  0
    6.4000    0.0000    0.0000 Cl  0  0  0  0  0  0  0  0  0  0  0  0
    4.0000    1.3856    0.0000 C   0  0  0  0  0  0  0  0  0  0  0  0
    4.8000    2.7713    0.0000 H   0  0  0  0  0  0  0  0  0  0  0  0
    2.4001    1.3856    0.0000 C   0  0  0  0  0  0  0  0  0  0  0  0
    1.6001    2.7713    0.0000 H   0  0  0  0  0  0  0  0  0  0  0  0
   -0.8001    1.3856    0.0000 C   0  0  0  0  0  0  0  0  0  0  0  0
   -0.0001    2.7713    0.0000 H   0  0  0  0  0  0  0  0  0  0  0  0
   -2.4000    1.3856    0.0000 C   0  0  0  0  0  0  0  0  0  0  0  0
   -3.2000    2.7713    0.0000 H   0  0  0  0  0  0  0  0  0  0  0  0
   -3.2000    0.0000    0.0000 C   0  0  0  0  0  0  0  0  0  0  0  0
   -4.8000   -0.0000    0.0000 Cl  0  0  0  0  0  0  0  0  0  0  0  0
   -2.4000   -1.3856    0.0000 C   0  0  0  0  0  0  0  0  0  0  0  0
   -3.2000   -2.7713    0.0000 H   0  0  0  0  0  0  0  0  0  0  0  0
   -0.8001   -1.3856    0.0000 C   0  0  0  0  0  0  0  0  0  0  0  0
   -0.0001   -2.7713    0.0000 H   0  0  0  0  0  0  0  0  0  0  0  0
  1  2  1  0  0  0  0
  2  3  1  0  0  0  0
  3  4  1  0  0  0  0
  3  5  2  0  0  0  0
  5  6  1  0  0  0  0
  5  7  1  0  0  0  0
  7  8  1  0  0  0  0
  7  9  2  0  0  0  0
  9 10  1  0  0  0  0
  9 11  1  0  0  0  0
 11  2  2  0  0  0  0
 11 12  1  0  0  0  0
  1 13  1  0  0  0  0
 13 14  1  0  0  0  0
 13 15  2  0  0  0  0
 15 16  1  0  0  0  0
 15 17  1  0  0  0  0
 17 18  1  0  0  0  0
 17 19  2  0  0  0  0
 19 20  1  0  0  0  0
 19 21  1  0  0  0  0
 21  1  2  0  0  0  0
 21 22  1  0  0  0  0
M  END
> <ChemID>
102070

> <source_casrn>
2050-68-2

> <CAS>
2050-68-2

> <SMILES>
Clc1ccc(cc1)-c1ccc(Cl)cc1

> <NAME>
4,4'-DICHLOROBIPHENYL

> <preferred_name>
4,4'-Dichlorobiphenyl

> <iupac>
4,4'-dichlorobiphenyl

> <MPID>
26628

> <dsstox_substance_id>
DTXSID0022515

> <Canonical_QSARr>
Clc1ccc(cc1)-c1ccc(Cl)cc1

> <InChI_Code_QSARr>
InChI=1S/C12H8Cl2/c13-11-5-1-9(2-6-11)10-3-7-12(14)8-4-10/h1-8H

> <InChI Key_QSARr>
YTBRNEUEFCNVHC-UHFFFAOYSA-N

> <Salt_Solvent>
?

> <LogVP>
-3.2716

$$$$
102074
  -INDIGO-08031723152D

 22 23  0  0  0  0  0  0  0  0999 V2000
   -0.0001    0.0000    0.0000 C   0  0  0  0  0  0  0  0  0  0  0  0
    1.6001   -0.0000    0.0000 C   0  0  0  0  0  0  0  0  0  0  0  0
    2.4001   -1.3856    0.0000 C   0  0  0  0  0  0  0  0  0  0  0  0
    1.6001   -2.7713    0.0000 Cl  0  0  0  0  0  0  0  0  0  0  0  0
    4.0000   -1.3856    0.0000 C   0  0  0  0  0  0  0  0  0  0  0  0
    4.8000   -2.7713    0.0000 Cl  0  0  0  0  0  0  0  0  0  0  0  0
    4.8000    0.0000    0.0000 C   0  0  0  0  0  0  0  0  0  0  0  0
    6.4000    0.0000    0.0000 Cl  0  0  0  0  0  0  0  0  0  0  0  0
    4.0000    1.3856    0.0000 C   0  0  0  0  0  0  0  0  0  0  0  0
    4.8000    2.7713    0.0000 Cl  0  0  0  0  0  0  0  0  0  0  0  0
    2.4001    1.3856    0.0000 C   0  0  0  0  0  0  0  0  0  0  0  0
    1.6001    2.7713    0.0000 Cl  0  0  0  0  0  0  0  0  0  0  0  0
   -0.8001    1.3856    0.0000 C   0  0  0  0  0  0  0  0  0  0  0  0
   -0.0001    2.7713    0.0000 Cl  0  0  0  0  0  0  0  0  0  0  0  0
   -2.4000    1.3856    0.0000 C   0  0  0  0  0  0  0  0  0  0  0  0
   -3.2000    2.7713    0.0000 Cl  0  0  0  0  0  0  0  0  0  0  0  0
   -3.2000    0.0000    0.0000 C   0  0  0  0  0  0  0  0  0  0  0  0
   -4.8000   -0.0000    0.0000 Cl  0  0  0  0  0  0  0  0  0  0  0  0
   -2.4000   -1.3856    0.0000 C   0  0  0  0  0  0  0  0  0  0  0  0
   -3.2000   -2.7713    0.0000 Cl  0  0  0  0  0  0  0  0  0  0  0  0
   -0.8001   -1.3856    0.0000 C   0  0  0  0  0  0  0  0  0  0  0  0
   -0.0001   -2.7713    0.0000 Cl  0  0  0  0  0  0  0  0  0  0  0  0
  1  2  1  0  0  0  0
  2  3  1  0  0  0  0
  3  4  1  0  0  0  0
  3  5  2  0  0  0  0
  5  6  1  0  0  0  0
  5  7  1  0  0  0  0
  7  8  1  0  0  0  0
  7  9  2  0  0  0  0
  9 10  1  0  0  0  0
  9 11  1  0  0  0  0
 11  2  2  0  0  0  0
 11 12  1  0  0  0  0
  1 13  1  0  0  0  0
 13 14  1  0  0  0  0
 13 15  2  0  0  0  0
 15 16  1  0  0  0  0
 15 17  1  0  0  0  0
 17 18  1  0  0  0  0
 17 19  2  0  0  0  0
 19 20  1  0  0  0  0
 19 21  1  0  0  0  0
 21  1  2  0  0  0  0
 21 22  1  0  0  0  0
M  END
> <ChemID>
102074

> <source_casrn>
2051-24-3

> <CAS>
2051-24-3

> <SMILES>
Clc1c(-c2c(Cl)c(Cl)c(Cl)c(Cl)c2Cl)c(Cl)c(Cl)c(Cl)c1Cl

> <NAME>
DECACHLOROBIPHENYL

> <preferred_name>
Decachlorobiphenyl

> <iupac>
decachlorobiphenyl

> <MPID>
26632

> <dsstox_substance_id>
DTXSID4047541

> <Canonical_QSARr>
Clc1c(-c2c(Cl)c(Cl)c(Cl)c(Cl)c2Cl)c(Cl)c(Cl)c(Cl)c1Cl

> <InChI_Code_QSARr>
InChI=1S/C12Cl10/c13-3-1(4(14)8(18)11(21)7(3)17)2-5(15)9(19)12(22)10(20)6(2)16

> <InChI Key_QSARr>
ONXPZLFXDMAPRO-UHFFFAOYSA-N

> <Salt_Solvent>
?

> <LogVP>
-6.9731

$$$$
102078
  -INDIGO-08031723152D

 22 23  0  0  0  0  0  0  0  0999 V2000
   -0.0001    0.0000    0.0000 C   0  0  0  0  0  0  0  0  0  0  0  0
    1.6001   -0.0000    0.0000 C   0  0  0  0  0  0  0  0  0  0  0  0
    2.4001   -1.3856    0.0000 C   0  0  0  0  0  0  0  0  0  0  0  0
    1.6001   -2.7713    0.0000 H   0  0  0  0  0  0  0  0  0  0  0  0
    4.0000   -1.3856    0.0000 C   0  0  0  0  0  0  0  0  0  0  0  0
    4.8000   -2.7713    0.0000 H   0  0  0  0  0  0  0  0  0  0  0  0
    4.8000    0.0000    0.0000 C   0  0  0  0  0  0  0  0  0  0  0  0
    6.4000    0.0000    0.0000 H   0  0  0  0  0  0  0  0  0  0  0  0
    4.0000    1.3856    0.0000 C   0  0  0  0  0  0  0  0  0  0  0  0
    4.8000    2.7713    0.0000 H   0  0  0  0  0  0  0  0  0  0  0  0
    2.4001    1.3856    0.0000 C   0  0  0  0  0  0  0  0  0  0  0  0
    1.6001    2.7713    0.0000 H   0  0  0  0  0  0  0  0  0  0  0  0
   -0.8001    1.3856    0.0000 C   0  0  0  0  0  0  0  0  0  0  0  0
   -0.0001    2.7713    0.0000 H   0  0  0  0  0  0  0  0  0  0  0  0
   -2.4000    1.3856    0.0000 C   0  0  0  0  0  0  0  0  0  0  0  0
   -3.2000    2.7713    0.0000 H   0  0  0  0  0  0  0  0  0  0  0  0
   -3.2000    0.0000    0.0000 C   0  0  0  0  0  0  0  0  0  0  0  0
   -4.8000   -0.0000    0.0000 Cl  0  0  0  0  0  0  0  0  0  0  0  0
   -2.4000   -1.3856    0.0000 C   0  0  0  0  0  0  0  0  0  0  0  0
   -3.2000   -2.7713    0.0000 H   0  0  0  0  0  0  0  0  0  0  0  0
   -0.8001   -1.3856    0.0000 C   0  0  0  0  0  0  0  0  0  0  0  0
   -0.0001   -2.7713    0.0000 H   0  0  0  0  0  0  0  0  0  0  0  0
  1  2  1  0  0  0  0
  2  3  1  0  0  0  0
  3  4  1  0  0  0  0
  3  5  2  0  0  0  0
  5  6  1  0  0  0  0
  5  7  1  0  0  0  0
  7  8  1  0  0  0  0
  7  9  2  0  0  0  0
  9 10  1  0  0  0  0
  9 11  1  0  0  0  0
 11  2  2  0  0  0  0
 11 12  1  0  0  0  0
  1 13  1  0  0  0  0
 13 14  1  0  0  0  0
 13 15  2  0  0  0  0
 15 16  1  0  0  0  0
 15 17  1  0  0  0  0
 17 18  1  0  0  0  0
 17 19  2  0  0  0  0
 19 20  1  0  0  0  0
 19 21  1  0  0  0  0
 21  1  2  0  0  0  0
 21 22  1  0  0  0  0
M  END
> <ChemID>
102078

> <source_casrn>
2051-62-9

> <CAS>
2051-62-9

> <SMILES>
Clc1ccc(cc1)-c1ccccc1

> <NAME>
4-CHLOROBIPHENYL

> <preferred_name>
4-Chlorobiphenyl

> <iupac>
4-chlorobiphenyl

> <MPID>
26636

> <dsstox_substance_id>
DTXSID3040300

> <Canonical_QSARr>
Clc1ccc(cc1)-c1ccccc1

> <InChI_Code_QSARr>
InChI=1S/C12H9Cl/c13-12-8-6-11(7-9-12)10-4-2-1-3-5-10/h1-9H

> <InChI Key_QSARr>
FPWNLURCHDRMHC-UHFFFAOYSA-N

> <Salt_Solvent>
?

> <LogVP>
-1.9788

$$$$
102082
  -INDIGO-08031723152D

 57 57  0  0  0  0  0  0  0  0999 V2000
  -11.0850   -0.0000    0.0000 C   0  0  0  0  0  0  0  0  0  0  0  0
  -11.0850   -1.6000    0.0000 C   0  0  0  0  0  0  0  0  0  0  0  0
   -9.6994   -2.4000    0.0000 H   0  0  0  0  0  0  0  0  0  0  0  0
  -12.4709   -2.4000    0.0000 C   0  0  0  0  0  0  0  0  0  0  0  0
  -12.4709   -4.0000    0.0000 H   0  0  0  0  0  0  0  0  0  0  0  0
  -13.8565   -1.6000    0.0000 C   0  0  0  0  0  0  0  0  0  0  0  0
  -15.2420   -2.4000    0.0000 H   0  0  0  0  0  0  0  0  0  0  0  0
  -13.8565   -0.0000    0.0000 C   0  0  0  0  0  0  0  0  0  0  0  0
  -15.2420    0.8000    0.0000 H   0  0  0  0  0  0  0  0  0  0  0  0
  -12.4709    0.8000    0.0000 C   0  0  0  0  0  0  0  0  0  0  0  0
  -12.4709    2.4000    0.0000 H   0  0  0  0  0  0  0  0  0  0  0  0
   -9.6994    0.8000    0.0000 C   0  0  0  0  0  0  0  0  0  0  0  0
   -9.0872    2.2782    0.0000 H   0  0  0  0  0  0  0  0  0  0  0  0
  -10.3117    2.2782    0.0000 H   0  0  0  0  0  0  0  0  0  0  0  0
   -8.3139   -0.0000    0.0000 C   0  0  0  0  0  0  0  0  0  0  0  0
   -8.9261   -1.4782    0.0000 H   0  0  0  0  0  0  0  0  0  0  0  0
   -7.7016   -1.4782    0.0000 H   0  0  0  0  0  0  0  0  0  0  0  0
   -6.9283    0.8000    0.0000 C   0  0  0  0  0  0  0  0  0  0  0  0
   -6.3161    2.2782    0.0000 H   0  0  0  0  0  0  0  0  0  0  0  0
   -7.5405    2.2782    0.0000 H   0  0  0  0  0  0  0  0  0  0  0  0
   -5.5428   -0.0000    0.0000 C   0  0  0  0  0  0  0  0  0  0  0  0
   -6.1550   -1.4782    0.0000 H   0  0  0  0  0  0  0  0  0  0  0  0
   -4.9301   -1.4782    0.0000 H   0  0  0  0  0  0  0  0  0  0  0  0
   -4.1568    0.8000    0.0000 C   0  0  0  0  0  0  0  0  0  0  0  0
   -3.5446    2.2782    0.0000 H   0  0  0  0  0  0  0  0  0  0  0  0
   -4.7690    2.2782    0.0000 H   0  0  0  0  0  0  0  0  0  0  0  0
   -2.7712   -0.0000    0.0000 C   0  0  0  0  0  0  0  0  0  0  0  0
   -3.3835   -1.4782    0.0000 H   0  0  0  0  0  0  0  0  0  0  0  0
   -2.1590   -1.4782    0.0000 H   0  0  0  0  0  0  0  0  0  0  0  0
   -1.3857    0.8000    0.0000 C   0  0  0  0  0  0  0  0  0  0  0  0
   -0.7734    2.2782    0.0000 H   0  0  0  0  0  0  0  0  0  0  0  0
   -1.9979    2.2782    0.0000 H   0  0  0  0  0  0  0  0  0  0  0  0
   -0.0001   -0.0000    0.0000 C   0  0  0  0  0  0  0  0  0  0  0  0
   -0.6124   -1.4782    0.0000 H   0  0  0  0  0  0  0  0  0  0  0  0
    0.6121   -1.4782    0.0000 H   0  0  0  0  0  0  0  0  0  0  0  0
    1.3858    0.8000    0.0000 C   0  0  0  0  0  0  0  0  0  0  0  0
    1.9981    2.2782    0.0000 H   0  0  0  0  0  0  0  0  0  0  0  0
    0.7732    2.2782    0.0000 H   0  0  0  0  0  0  0  0  0  0  0  0
    2.7714   -0.0000    0.0000 C   0  0  0  0  0  0  0  0  0  0  0  0
    2.1592   -1.4782    0.0000 H   0  0  0  0  0  0  0  0  0  0  0  0
    3.3836   -1.4782    0.0000 H   0  0  0  0  0  0  0  0  0  0  0  0
    4.1569    0.8000    0.0000 C   0  0  0  0  0  0  0  0  0  0  0  0
    4.7692    2.2782    0.0000 H   0  0  0  0  0  0  0  0  0  0  0  0
    3.5447    2.2782    0.0000 H   0  0  0  0  0  0  0  0  0  0  0  0
    5.5425   -0.0000    0.0000 C   0  0  0  0  0  0  0  0  0  0  0  0
    4.9303   -1.4782    0.0000 H   0  0  0  0  0  0  0  0  0  0  0  0
    6.1547   -1.4782    0.0000 H   0  0  0  0  0  0  0  0  0  0  0  0
    6.9281    0.8000    0.0000 C   0  0  0  0  0  0  0  0  0  0  0  0
    7.5407    2.2782    0.0000 H   0  0  0  0  0  0  0  0  0  0  0  0
    6.3158    2.2782    0.0000 H   0  0  0  0  0  0  0  0  0  0  0  0
    8.3140   -0.0000    0.0000 C   0  0  0  0  0  0  0  0  0  0  0  0
    7.7014   -1.4782    0.0000 H   0  0  0  0  0  0  0  0  0  0  0  0
    8.9262   -1.4782    0.0000 H   0  0  0  0  0  0  0  0  0  0  0  0
    9.6996    0.8000    0.0000 C   0  0  0  0  0  0  0  0  0  0  0  0
   11.0851    1.6000    0.0000 H   0  0  0  0  0  0  0  0  0  0  0  0
   11.0851   -0.0000    0.0000 H   0  0  0  0  0  0  0  0  0  0  0  0
    9.6996    2.4000    0.0000 H   0  0  0  0  0  0  0  0  0  0  0  0
  1  2  1  0  0  0  0
  2  3  1  0  0  0  0
  2  4  2  0  0  0  0
  4  5  1  0  0  0  0
  4  6  1  0  0  0  0
  6  7  1  0  0  0  0
  6  8  2  0  0  0  0
  8  9  1  0  0  0  0
  8 10  1  0  0  0  0
 10  1  2  0  0  0  0
 10 11  1  0  0  0  0
  1 12  1  0  0  0  0
 12 13  1  0  0  0  0
 12 14  1  0  0  0  0
 12 15  1  0  0  0  0
 15 16  1  0  0  0  0
 15 17  1  0  0  0  0
 15 18  1  0  0  0  0
 18 19  1  0  0  0  0
 18 20  1  0  0  0  0
 18 21  1  0  0  0  0
 21 22  1  0  0  0  0
 21 23  1  0  0  0  0
 21 24  1  0  0  0  0
 24 25  1  0  0  0  0
 24 26  1  0  0  0  0
 24 27  1  0  0  0  0
 27 28  1  0  0  0  0
 27 29  1  0  0  0  0
 27 30  1  0  0  0  0
 30 31  1  0  0  0  0
 30 32  1  0  0  0  0
 30 33  1  0  0  0  0
 33 34  1  0  0  0  0
 33 35  1  0  0  0  0
 33 36  1  0  0  0  0
 36 37  1  0  0  0  0
 36 38  1  0  0  0  0
 36 39  1  0  0  0  0
 39 40  1  0  0  0  0
 39 41  1  0  0  0  0
 39 42  1  0  0  0  0
 42 43  1  0  0  0  0
 42 44  1  0  0  0  0
 42 45  1  0  0  0  0
 45 46  1  0  0  0  0
 45 47  1  0  0  0  0
 45 48  1  0  0  0  0
 48 49  1  0  0  0  0
 48 50  1  0  0  0  0
 48 51  1  0  0  0  0
 51 52  1  0  0  0  0
 51 53  1  0  0  0  0
 51 54  1  0  0  0  0
 54 55  1  0  0  0  0
 54 56  1  0  0  0  0
 54 57  1  0  0  0  0
M  END
> <ChemID>
102082

> <source_casrn>
2131-18-2

> <CAS>
2131-18-2

> <SMILES>
CCCCCCCCCCCCCCCc1ccccc1

> <NAME>
1-PHENYLPENTADECANE

> <preferred_name>
Pentadecylbenzene

> <iupac>
pentadecylbenzene

> <MPID>
26640

> <dsstox_substance_id>
DTXSID5051860

> <Canonical_QSARr>
CCCCCCCCCCCCCCCc1ccccc1

> <InChI_Code_QSARr>
InChI=1S/C21H36/c1-2-3-4-5-6-7-8-9-10-11-12-13-15-18-21-19-16-14-17-20-21/h14,16-17,19-20H,2-13,15,18H2,1H3

> <InChI Key_QSARr>
JIRNEODMTPGRGV-UHFFFAOYSA-N

> <Salt_Solvent>
?

> <LogVP>
-5.1427

$$$$
102087
  -INDIGO-08031723152D

 35 37  0  0  0  0  0  0  0  0999 V2000
    1.6000    0.0000    0.0000 N   0  0  0  0  0  0  0  0  0  0  0  0
    2.4001    1.3857    0.0000 C   0  0  0  0  0  0  0  0  0  0  0  0
    1.6000    2.7713    0.0000 O   0  0  0  0  0  0  0  0  0  0  0  0
    3.9999    1.3857    0.0000 C   0  0  0  0  0  0  0  0  0  0  0  0
    4.8001    0.0000    0.0000 C   0  0  0  0  0  0  0  0  0  0  0  0
    6.3651    0.3326    0.0000 C   0  0  0  0  0  0  0  0  0  0  0  0
    7.9650    0.3326    0.0000 H   0  0  0  0  0  0  0  0  0  0  0  0
    6.5323   -1.2586    0.0000 H   0  0  0  0  0  0  0  0  0  0  0  0
    6.5323    1.9239    0.0000 C   0  0  0  0  0  0  0  0  0  0  0  0
    7.0267    3.4456    0.0000 H   0  0  0  0  0  0  0  0  0  0  0  0
    8.0973    1.5913    0.0000 H   0  0  0  0  0  0  0  0  0  0  0  0
    5.0706    2.5747    0.0000 C   0  0  0  0  0  0  0  0  0  0  0  0
    3.7762    3.5152    0.0000 H   0  0  0  0  0  0  0  0  0  0  0  0
    5.8707    3.9603    0.0000 H   0  0  0  0  0  0  0  0  0  0  0  0
    3.9999   -1.3857    0.0000 N   0  0  0  0  0  0  0  0  0  0  0  0
    4.8001   -2.7713    0.0000 H   0  0  0  0  0  0  0  0  0  0  0  0
    2.4001   -1.3857    0.0000 C   0  0  0  0  0  0  0  0  0  0  0  0
    1.6000   -2.7713    0.0000 O   0  0  0  0  0  0  0  0  0  0  0  0
    0.0001    0.0000    0.0000 C   0  0  0  0  0  0  0  0  0  0  0  0
    0.8000    1.3857    0.0000 H   0  0  0  0  0  0  0  0  0  0  0  0
   -0.2779   -1.5757    0.0000 C   0  0  0  0  0  0  0  0  0  0  0  0
    1.3222   -1.5757    0.0000 H   0  0  0  0  0  0  0  0  0  0  0  0
   -0.0001   -3.1514    0.0000 H   0  0  0  0  0  0  0  0  0  0  0  0
   -1.7814   -2.1229    0.0000 C   0  0  0  0  0  0  0  0  0  0  0  0
   -0.9813   -3.5086    0.0000 H   0  0  0  0  0  0  0  0  0  0  0  0
   -3.0070   -3.1514    0.0000 H   0  0  0  0  0  0  0  0  0  0  0  0
   -3.0070   -1.0945    0.0000 C   0  0  0  0  0  0  0  0  0  0  0  0
   -3.8070   -2.4801    0.0000 H   0  0  0  0  0  0  0  0  0  0  0  0
   -4.5105   -0.5472    0.0000 H   0  0  0  0  0  0  0  0  0  0  0  0
   -2.7292    0.4812    0.0000 C   0  0  0  0  0  0  0  0  0  0  0  0
   -4.3291    0.4812    0.0000 H   0  0  0  0  0  0  0  0  0  0  0  0
   -3.0070    2.0569    0.0000 H   0  0  0  0  0  0  0  0  0  0  0  0
   -1.2256    1.0285    0.0000 C   0  0  0  0  0  0  0  0  0  0  0  0
   -2.0257    2.4141    0.0000 H   0  0  0  0  0  0  0  0  0  0  0  0
    0.0001    2.0569    0.0000 H   0  0  0  0  0  0  0  0  0  0  0  0
  1  2  1  0  0  0  0
  2  3  2  0  0  0  0
  2  4  1  0  0  0  0
  4  5  2  0  0  0  0
  5  6  1  0  0  0  0
  6  7  1  0  0  0  0
  6  8  1  0  0  0  0
  6  9  1  0  0  0  0
  9 10  1  0  0  0  0
  9 11  1  0  0  0  0
  9 12  1  0  0  0  0
 12  4  1  0  0  0  0
 12 13  1  0  0  0  0
 12 14  1  0  0  0  0
  5 15  1  0  0  0  0
 15 16  1  0  0  0  0
 15 17  1  0  0  0  0
 17  1  1  0  0  0  0
 17 18  2  0  0  0  0
  1 19  1  0  0  0  0
 19 20  1  0  0  0  0
 19 21  1  0  0  0  0
 21 22  1  0  0  0  0
 21 23  1  0  0  0  0
 21 24  1  0  0  0  0
 24 25  1  0  0  0  0
 24 26  1  0  0  0  0
 24 27  1  0  0  0  0
 27 28  1  0  0  0  0
 27 29  1  0  0  0  0
 27 30  1  0  0  0  0
 30 31  1  0  0  0  0
 30 32  1  0  0  0  0
 30 33  1  0  0  0  0
 33 19  1  0  0  0  0
 33 34  1  0  0  0  0
 33 35  1  0  0  0  0
M  END
> <ChemID>
102087

> <source_casrn>
2164-08-1

> <CAS>
2164-08-1

> <SMILES>
O=C1C2CCCC=2NC(=O)N1C1CCCCC1

> <NAME>
LENACIL

> <preferred_name>
Lenacil

> <iupac>
3-cyclohexyl-6,7-dihydro-1H-cyclopenta[d]pyrimidine-2,4(3H,5H)-dione

> <MPID>
26645

> <dsstox_substance_id>
DTXSID9042093

> <Canonical_QSARr>
O=C1C2CCCC=2NC(=O)N1C1CCCCC1

> <InChI_Code_QSARr>
InChI=1S/C13H18N2O2/c16-12-10-7-4-8-11(10)14-13(17)15(12)9-5-2-1-3-6-9/h9H,1-8H2,(H,14,17)

> <InChI Key_QSARr>
ZTMKADLOSYKWCA-UHFFFAOYSA-N

> <Salt_Solvent>
?

> <LogVP>
-8.8239

$$$$
102091
  -INDIGO-08031723152D

 11 11  0  0  0  0  0  0  0  0999 V2000
   -0.0000    3.2000    0.0000 N   0  0  0  0  0  0  0  0  0  0  0  0
    1.3856    2.4000    0.0000 C   0  0  0  0  0  0  0  0  0  0  0  0
    2.7713    3.2000    0.0000 Cl  0  0  0  0  0  0  0  0  0  0  0  0
    1.3856    0.8000    0.0000 C   0  0  0  0  0  0  0  0  0  0  0  0
    2.7713    0.0000    0.0000 Cl  0  0  0  0  0  0  0  0  0  0  0  0
   -0.0000    0.0000    0.0000 C   0  0  0  0  0  0  0  0  0  0  0  0
   -0.0000   -1.6000    0.0000 Cl  0  0  0  0  0  0  0  0  0  0  0  0
   -1.3856    0.8000    0.0000 C   0  0  0  0  0  0  0  0  0  0  0  0
   -2.7713    0.0000    0.0000 Cl  0  0  0  0  0  0  0  0  0  0  0  0
   -1.3856    2.4000    0.0000 C   0  0  0  0  0  0  0  0  0  0  0  0
   -2.7713    3.2000    0.0000 Cl  0  0  0  0  0  0  0  0  0  0  0  0
  1  2  1  0  0  0  0
  2  3  1  0  0  0  0
  2  4  2  0  0  0  0
  4  5  1  0  0  0  0
  4  6  1  0  0  0  0
  6  7  1  0  0  0  0
  6  8  2  0  0  0  0
  8  9  1  0  0  0  0
  8 10  1  0  0  0  0
 10  1  2  0  0  0  0
 10 11  1  0  0  0  0
M  END
> <ChemID>
102091

> <source_casrn>
2176-62-7

> <CAS>
2176-62-7

> <SMILES>
Clc1c(Cl)c(Cl)[n]c(Cl)c1Cl

> <NAME>
2,3,4,5,6-PENTACHLORPYRIDINE

> <preferred_name>
Pentachloropyridine

> <iupac>
pentachloropyridine

> <MPID>
26649

> <dsstox_substance_id>
DTXSID2022179

> <Canonical_QSARr>
Clc1c(Cl)c(Cl)[n]c(Cl)c1Cl

> <InChI_Code_QSARr>
InChI=1S/C5Cl5N/c6-1-2(7)4(9)11-5(10)3(1)8

> <InChI Key_QSARr>
DNDPLEAVNVOOQZ-UHFFFAOYSA-N

> <Salt_Solvent>
?

> <LogVP>
-1.8539

$$$$
102099
  -INDIGO-08031723152D

 29 28  0  0  0  0  0  0  0  0999 V2000
   -1.3857   -2.4000    0.0000 C   0  0  0  0  0  0  0  0  0  0  0  0
   -1.3857   -4.0000    0.0000 H   0  0  0  0  0  0  0  0  0  0  0  0
   -2.7713   -3.2000    0.0000 H   0  0  0  0  0  0  0  0  0  0  0  0
   -0.0000   -3.2000    0.0000 H   0  0  0  0  0  0  0  0  0  0  0  0
   -1.3857   -0.8000    0.0000 C   0  0  0  0  0  0  0  0  0  0  0  0
   -2.9720   -0.5912    0.0000 H   0  0  0  0  0  0  0  0  0  0  0  0
   -2.3597    0.4693    0.0000 H   0  0  0  0  0  0  0  0  0  0  0  0
   -0.0000    0.0001    0.0000 C   0  0  0  0  0  0  0  0  0  0  0  0
    0.8000   -1.3856    0.0000 H   0  0  0  0  0  0  0  0  0  0  0  0
    1.5035    0.5473    0.0000 C   0  0  0  0  0  0  0  0  0  0  0  0
    1.1572    2.1093    0.0000 H   0  0  0  0  0  0  0  0  0  0  0  0
    2.3632    1.8967    0.0000 H   0  0  0  0  0  0  0  0  0  0  0  0
    2.7292   -0.4812    0.0000 C   0  0  0  0  0  0  0  0  0  0  0  0
    3.0754   -2.0433    0.0000 H   0  0  0  0  0  0  0  0  0  0  0  0
    1.8695   -1.8306    0.0000 H   0  0  0  0  0  0  0  0  0  0  0  0
    4.2327    0.0660    0.0000 C   0  0  0  0  0  0  0  0  0  0  0  0
    3.8864    1.6281    0.0000 H   0  0  0  0  0  0  0  0  0  0  0  0
    5.0924    1.4155    0.0000 H   0  0  0  0  0  0  0  0  0  0  0  0
    5.4584   -0.9625    0.0000 C   0  0  0  0  0  0  0  0  0  0  0  0
    5.8046   -2.5245    0.0000 H   0  0  0  0  0  0  0  0  0  0  0  0
    4.5987   -2.3119    0.0000 H   0  0  0  0  0  0  0  0  0  0  0  0
    6.9619   -0.4152    0.0000 C   0  0  0  0  0  0  0  0  0  0  0  0
    8.4654    0.1320    0.0000 H   0  0  0  0  0  0  0  0  0  0  0  0
    8.1875   -1.4437    0.0000 H   0  0  0  0  0  0  0  0  0  0  0  0
    7.2397    1.1605    0.0000 H   0  0  0  0  0  0  0  0  0  0  0  0
   -0.8000    1.3856    0.0000 C   0  0  0  0  0  0  0  0  0  0  0  0
   -1.6000    2.7713    0.0000 H   0  0  0  0  0  0  0  0  0  0  0  0
   -2.3756    1.6635    0.0000 H   0  0  0  0  0  0  0  0  0  0  0  0
   -0.0000    2.7713    0.0000 H   0  0  0  0  0  0  0  0  0  0  0  0
  1  2  1  0  0  0  0
  1  3  1  0  0  0  0
  1  4  1  0  0  0  0
  1  5  1  0  0  0  0
  5  6  1  0  0  0  0
  5  7  1  0  0  0  0
  5  8  1  0  0  0  0
  8  9  1  0  0  0  0
  8 10  1  0  0  0  0
 10 11  1  0  0  0  0
 10 12  1  0  0  0  0
 10 13  1  0  0  0  0
 13 14  1  0  0  0  0
 13 15  1  0  0  0  0
 13 16  1  0  0  0  0
 16 17  1  0  0  0  0
 16 18  1  0  0  0  0
 16 19  1  0  0  0  0
 19 20  1  0  0  0  0
 19 21  1  0  0  0  0
 19 22  1  0  0  0  0
 22 23  1  0  0  0  0
 22 24  1  0  0  0  0
 22 25  1  0  0  0  0
  8 26  1  0  0  0  0
 26 27  1  0  0  0  0
 26 28  1  0  0  0  0
 26 29  1  0  0  0  0
M  END
> <ChemID>
102099

> <source_casrn>
2216-33-3

> <CAS>
2216-33-3

> <SMILES>
CCCCCC(C)CC

> <NAME>
3-METHYLOCTANE

> <preferred_name>


> <iupac>


> <MPID>
26655

> <dsstox_substance_id>
DTXSID30862875

> <Canonical_QSARr>
CCCCCC(C)CC

> <InChI_Code_QSARr>
InChI=1S/C9H20/c1-4-6-7-8-9(3)5-2/h9H,4-8H2,1-3H3

> <InChI Key_QSARr>
SEEOMASXHIJCDV-UHFFFAOYSA-N

> <Salt_Solvent>
?

> <LogVP>
0.7962

$$$$
102105
  -INDIGO-08031723152D

 14 13  0  0  0  0  0  0  0  0999 V2000
   -0.0001    0.0000    0.0000 C   0  0  0  0  0  0  0  0  0  0  0  0
   -0.0001    1.6000    0.0000 H   0  0  0  0  0  0  0  0  0  0  0  0
    1.3857   -0.8000    0.0000 C   0  0  0  0  0  0  0  0  0  0  0  0
    1.3857   -2.4000    0.0000 H   0  0  0  0  0  0  0  0  0  0  0  0
    2.7713    0.0000    0.0000 C   0  0  0  0  0  0  0  0  0  0  0  0
    2.7713    1.6000    0.0000 H   0  0  0  0  0  0  0  0  0  0  0  0
    4.1569   -0.8000    0.0000 C   0  0  0  0  0  0  0  0  0  0  0  0
    5.5426    0.0000    0.0000 H   0  0  0  0  0  0  0  0  0  0  0  0
    4.1569   -2.4000    0.0000 H   0  0  0  0  0  0  0  0  0  0  0  0
   -1.3857   -0.8000    0.0000 C   0  0  0  0  0  0  0  0  0  0  0  0
   -1.3857   -2.4000    0.0000 H   0  0  0  0  0  0  0  0  0  0  0  0
   -2.7713    0.0000    0.0000 C   0  0  0  0  0  0  0  0  0  0  0  0
   -4.1569   -0.8000    0.0000 H   0  0  0  0  0  0  0  0  0  0  0  0
   -2.7713    1.6000    0.0000 H   0  0  0  0  0  0  0  0  0  0  0  0
  1  2  1  0  0  0  0
  1  3  2  0  0  0  0
  3  4  1  0  0  0  0
  3  5  1  0  0  0  0
  5  6  1  0  0  0  0
  5  7  2  0  0  0  0
  7  8  1  0  0  0  0
  7  9  1  0  0  0  0
  1 10  1  0  0  0  0
 10 11  1  0  0  0  0
 10 12  2  0  0  0  0
 12 13  1  0  0  0  0
 12 14  1  0  0  0  0
M  END
> <ChemID>
102105

> <source_casrn>
2235-12-3

> <CAS>
2235-12-3

> <SMILES>
C=CC=CC=C

> <NAME>
1,3,5-HEXATRIENE

> <preferred_name>
1,3,5-Hexatriene

> <iupac>


> <MPID>
26661

> <dsstox_substance_id>
DTXSID3062283

> <Canonical_QSARr>
C=CC=CC=C

> <InChI_Code_QSARr>
InChI=1S/C6H8/c1-3-5-6-4-2/h3-6H,1-2H2/b6-5+

> <InChI Key_QSARr>
AFVDZBIIBXWASR-AATRIKPKSA-N

> <Salt_Solvent>
?

> <LogVP>
1.9539

$$$$
102109
  -INDIGO-08031723152D

 32 31  0  0  0  0  0  0  0  0999 V2000
    2.5235    2.3263    0.0000 O   0  0  0  0  0  0  0  0  0  0  0  0
    2.8014    0.7507    0.0000 C   0  0  0  0  0  0  0  0  0  0  0  0
    1.5756   -0.2778    0.0000 N   0  0  0  0  0  0  0  0  0  0  0  0
    2.1230   -1.7814    0.0000 C   0  0  0  0  0  0  0  0  0  0  0  0
    3.5086   -0.9813    0.0000 H   0  0  0  0  0  0  0  0  0  0  0  0
    3.1514   -3.0070    0.0000 C   0  0  0  0  0  0  0  0  0  0  0  0
    4.1798   -4.2326    0.0000 H   0  0  0  0  0  0  0  0  0  0  0  0
    4.7271   -2.7292    0.0000 H   0  0  0  0  0  0  0  0  0  0  0  0
    2.6042   -4.5105    0.0000 H   0  0  0  0  0  0  0  0  0  0  0  0
    0.7373   -2.5814    0.0000 C   0  0  0  0  0  0  0  0  0  0  0  0
   -0.6483   -3.3814    0.0000 H   0  0  0  0  0  0  0  0  0  0  0  0
    0.7373   -4.1813    0.0000 H   0  0  0  0  0  0  0  0  0  0  0  0
    2.1230   -3.3814    0.0000 H   0  0  0  0  0  0  0  0  0  0  0  0
   -0.0001    0.0001    0.0000 C   0  0  0  0  0  0  0  0  0  0  0  0
   -0.0001   -1.6000    0.0000 H   0  0  0  0  0  0  0  0  0  0  0  0
   -1.5999    0.0001    0.0000 C   0  0  0  0  0  0  0  0  0  0  0  0
   -3.2000    0.0001    0.0000 H   0  0  0  0  0  0  0  0  0  0  0  0
   -2.4001    1.3857    0.0000 H   0  0  0  0  0  0  0  0  0  0  0  0
   -2.4001   -1.3857    0.0000 H   0  0  0  0  0  0  0  0  0  0  0  0
   -0.0001    1.6000    0.0000 C   0  0  0  0  0  0  0  0  0  0  0  0
   -0.0001    3.2000    0.0000 H   0  0  0  0  0  0  0  0  0  0  0  0
    1.3855    2.4000    0.0000 H   0  0  0  0  0  0  0  0  0  0  0  0
   -1.3857    2.4000    0.0000 H   0  0  0  0  0  0  0  0  0  0  0  0
    4.3050    0.2034    0.0000 S   0  0  0  0  0  0  0  0  0  0  0  0
    5.5306    1.2318    0.0000 C   0  0  0  0  0  0  0  0  0  0  0  0
    4.6709    2.5813    0.0000 H   0  0  0  0  0  0  0  0  0  0  0  0
    5.8769    2.7939    0.0000 H   0  0  0  0  0  0  0  0  0  0  0  0
    7.0341    0.6846    0.0000 C   0  0  0  0  0  0  0  0  0  0  0  0
    8.2597    1.7131    0.0000 C   0  0  0  0  0  0  0  0  0  0  0  0
    9.7632    1.1659    0.0000 H   0  0  0  0  0  0  0  0  0  0  0  0
    7.9818    3.2888    0.0000 Cl  0  0  0  0  0  0  0  0  0  0  0  0
    7.3118   -0.8911    0.0000 Cl  0  0  0  0  0  0  0  0  0  0  0  0
  1  2  2  0  0  0  0
  2  3  1  0  0  0  0
  3  4  1  0  0  0  0
  4  5  1  0  0  0  0
  4  6  1  0  0  0  0
  6  7  1  0  0  0  0
  6  8  1  0  0  0  0
  6  9  1  0  0  0  0
  4 10  1  0  0  0  0
 10 11  1  0  0  0  0
 10 12  1  0  0  0  0
 10 13  1  0  0  0  0
  3 14  1  0  0  0  0
 14 15  1  0  0  0  0
 14 16  1  0  0  0  0
 16 17  1  0  0  0  0
 16 18  1  0  0  0  0
 16 19  1  0  0  0  0
 14 20  1  0  0  0  0
 20 21  1  0  0  0  0
 20 22  1  0  0  0  0
 20 23  1  0  0  0  0
  2 24  1  0  0  0  0
 24 25  1  0  0  0  0
 25 26  1  0  0  0  0
 25 27  1  0  0  0  0
 25 28  1  0  0  0  0
 28 29  2  0  0  0  0
 29 30  1  0  0  0  0
 29 31  1  0  0  0  0
 28 32  1  0  0  0  0
M  END
> <ChemID>
102109

> <source_casrn>
2303-16-4

> <CAS>
2303-16-4

> <SMILES>
CC(C)N(C(C)C)C(=O)SCC(Cl)=CCl

> <NAME>
DIALLATE

> <preferred_name>
Diallate

> <iupac>
C10H17Cl2NOS

> <MPID>
26665

> <dsstox_substance_id>
DTXSID2020391

> <Canonical_QSARr>
CC(C)N(C(C)C)C(=O)SCC(Cl)=CCl

> <InChI_Code_QSARr>
InChI=1S/C10H17Cl2NOS/c1-7(2)13(8(3)4)10(14)15-6-9(12)5-11/h5,7-8H,6H2,1-4H3/b9-5+

> <InChI Key_QSARr>
SPANOECCGNXGNR-WEVVVXLNSA-N

> <Salt_Solvent>
?

> <LogVP>
-3.8239

$$$$
102113
  -INDIGO-08031723152D

 12 11  0  0  0  0  0  0  0  0999 V2000
    1.3857    0.8000    0.0000 C   0  0  0  0  0  0  0  0  0  0  0  0
    1.3857    2.4000    0.0000 O   0  0  0  0  0  0  0  0  0  0  0  0
    2.7713    0.0000    0.0000 O   0  0  0  0  0  0  0  0  0  0  0  0
    4.1570    0.8000    0.0000 C   0  0  0  0  0  0  0  0  0  0  0  0
    5.5426    1.6000    0.0000 H   0  0  0  0  0  0  0  0  0  0  0  0
    5.5426    0.0000    0.0000 H   0  0  0  0  0  0  0  0  0  0  0  0
    4.1570    2.4000    0.0000 H   0  0  0  0  0  0  0  0  0  0  0  0
    0.0000    0.0000    0.0000 C   0  0  0  0  0  0  0  0  0  0  0  0
    0.6122   -1.4782    0.0000 H   0  0  0  0  0  0  0  0  0  0  0  0
   -0.6122   -1.4782    0.0000 H   0  0  0  0  0  0  0  0  0  0  0  0
   -1.3857    0.8000    0.0000 S   0  0  0  0  0  0  0  0  0  0  0  0
   -2.7713    0.0000    0.0000 H   0  0  0  0  0  0  0  0  0  0  0  0
  1  2  2  0  0  0  0
  1  3  1  0  0  0  0
  3  4  1  0  0  0  0
  4  5  1  0  0  0  0
  4  6  1  0  0  0  0
  4  7  1  0  0  0  0
  1  8  1  0  0  0  0
  8  9  1  0  0  0  0
  8 10  1  0  0  0  0
  8 11  1  0  0  0  0
 11 12  1  0  0  0  0
M  END
> <ChemID>
102113

> <source_casrn>
2365-48-2

> <CAS>
2365-48-2

> <SMILES>
COC(=O)CS

> <NAME>
Methyl thioglycolate

> <preferred_name>
Methyl thioglycolate

> <iupac>
methyl sulfanylacetate

> <MPID>
26669

> <dsstox_substance_id>
DTXSID0033673

> <Canonical_QSARr>
COC(=O)CS

> <InChI_Code_QSARr>
InChI=1S/C3H6O2S/c1-5-3(4)2-6/h6H,2H2,1H3

> <InChI Key_QSARr>
MKIJJIMOAABWGF-UHFFFAOYSA-N

> <Salt_Solvent>
?

> <LogVP>
0.4771

$$$$
102117
  -INDIGO-08031723152D

 22 26  0  0  0  0  0  0  0  0999 V2000
   -0.0000    0.0000    0.0000 C   0  0  0  0  0  0  0  0  0  0  0  0
   -1.5913    0.1672    0.0000 C   0  0  0  0  0  0  0  0  0  0  0  0
   -2.9769   -0.6328    0.0000 C   0  0  0  0  0  0  0  0  0  0  0  0
   -2.6442   -2.1978    0.0000 C   0  0  0  0  0  0  0  0  0  0  0  0
   -3.7148   -3.3868    0.0000 Cl  0  0  0  0  0  0  0  0  0  0  0  0
    1.9239   -1.7322    0.0000 C   0  0  0  0  0  0  0  0  0  0  0  0
    0.3327   -1.5650    0.0000 C   0  0  0  0  0  0  0  0  0  0  0  0
   -0.3516   -0.9270    0.0000 Cl  0  0  0  0  0  0  0  0  0  0  0  0
   -1.0530   -2.3650    0.0000 C   0  0  0  0  0  0  0  0  0  0  0  0
   -1.1832   -1.4386    0.0000 Cl  0  0  0  0  0  0  0  0  0  0  0  0
   -2.2420   -1.2944    0.0000 C   0  0  0  0  0  0  0  0  0  0  0  0
   -3.8177   -1.0166    0.0000 Cl  0  0  0  0  0  0  0  0  0  0  0  0
   -3.5685   -2.1891    0.0000 Cl  0  0  0  0  0  0  0  0  0  0  0  0
    2.8623   -3.0282    0.0000 Cl  0  0  0  0  0  0  0  0  0  0  0  0
    2.5747   -0.2706    0.0000 C   0  0  0  0  0  0  0  0  0  0  0  0
    3.9603   -1.0706    0.0000 Cl  0  0  0  0  0  0  0  0  0  0  0  0
    3.5151    1.0238    0.0000 Cl  0  0  0  0  0  0  0  0  0  0  0  0
    1.3856    0.8000    0.0000 C   0  0  0  0  0  0  0  0  0  0  0  0
    1.7159    2.3656    0.0000 Cl  0  0  0  0  0  0  0  0  0  0  0  0
   -4.4385    0.0180    0.0000 Cl  0  0  0  0  0  0  0  0  0  0  0  0
   -1.9240    1.7323    0.0000 Cl  0  0  0  0  0  0  0  0  0  0  0  0
    1.4616   -0.6508    0.0000 Cl  0  0  0  0  0  0  0  0  0  0  0  0
  1  2  1  0  0  0  0
  2  3  1  0  0  0  0
  3  4  1  0  0  0  0
  4  5  1  0  0  0  0
  4  6  1  0  0  0  0
  6  7  1  0  0  0  0
  7  1  1  0  0  0  0
  7  8  1  0  0  0  0
  7  9  1  0  0  0  0
  9  4  1  0  0  0  0
  9 10  1  0  0  0  0
  9 11  1  0  0  0  0
 11  2  1  0  0  0  0
 11 12  1  0  0  0  0
 11 13  1  0  0  0  0
  6 14  1  0  0  0  0
  6 15  1  0  0  0  0
 15 16  1  0  0  0  0
 15 17  1  0  0  0  0
 15 18  1  0  0  0  0
 18  1  1  0  0  0  0
 18  3  1  0  0  0  0
 18 19  1  0  0  0  0
  3 20  1  0  0  0  0
  2 21  1  0  0  0  0
  1 22  1  0  0  0  0
M  END
> <ChemID>
102117

> <source_casrn>
2385-85-5

> <CAS>
2385-85-5

> <SMILES>
ClC1(Cl)C2(Cl)C3(Cl)C4(Cl)C2(Cl)C2(Cl)C(Cl)(C3(Cl)C12Cl)C4(Cl)Cl

> <NAME>
MIREX

> <preferred_name>
Mirex

> <iupac>
C10Cl12

> <MPID>
26673

> <dsstox_substance_id>
DTXSID7020895

> <Canonical_QSARr>
ClC1(Cl)C2(Cl)C3(Cl)C4(Cl)C2(Cl)C2(Cl)C(Cl)(C3(Cl)C12Cl)C4(Cl)Cl

> <InChI_Code_QSARr>
InChI=1S/C10Cl12/c11-1-2(12)7(17)4(14)3(13,5(1,15)9(7,19)20)6(1,16)10(21,22)8(2,4)18

> <InChI Key_QSARr>
GVYLCNUFSHDAAW-UHFFFAOYSA-N

> <Salt_Solvent>
?

> <LogVP>
-6.0969

$$$$
102122
  -INDIGO-08031723152D

 44 43  0  0  0  0  0  0  0  0999 V2000
    8.3138    0.0000    0.0000 C   0  0  0  0  0  0  0  0  0  0  0  0
    9.6995    0.8000    0.0000 H   0  0  0  0  0  0  0  0  0  0  0  0
    9.6995   -0.8000    0.0000 H   0  0  0  0  0  0  0  0  0  0  0  0
    6.9282   -0.8000    0.0000 C   0  0  0  0  0  0  0  0  0  0  0  0
    6.3158   -2.2782    0.0000 H   0  0  0  0  0  0  0  0  0  0  0  0
    7.5406   -2.2782    0.0000 H   0  0  0  0  0  0  0  0  0  0  0  0
    5.5426    0.0000    0.0000 C   0  0  0  0  0  0  0  0  0  0  0  0
    6.1550    1.4782    0.0000 H   0  0  0  0  0  0  0  0  0  0  0  0
    4.9301    1.4782    0.0000 H   0  0  0  0  0  0  0  0  0  0  0  0
    4.1569   -0.8000    0.0000 C   0  0  0  0  0  0  0  0  0  0  0  0
    3.5445   -2.2782    0.0000 H   0  0  0  0  0  0  0  0  0  0  0  0
    4.7693   -2.2782    0.0000 H   0  0  0  0  0  0  0  0  0  0  0  0
    2.7713    0.0000    0.0000 C   0  0  0  0  0  0  0  0  0  0  0  0
    3.3837    1.4782    0.0000 H   0  0  0  0  0  0  0  0  0  0  0  0
    2.1589    1.4782    0.0000 H   0  0  0  0  0  0  0  0  0  0  0  0
    1.3856   -0.8000    0.0000 C   0  0  0  0  0  0  0  0  0  0  0  0
    0.7732   -2.2782    0.0000 H   0  0  0  0  0  0  0  0  0  0  0  0
    1.9981   -2.2782    0.0000 H   0  0  0  0  0  0  0  0  0  0  0  0
    0.0000    0.0000    0.0000 C   0  0  0  0  0  0  0  0  0  0  0  0
    0.6124    1.4782    0.0000 H   0  0  0  0  0  0  0  0  0  0  0  0
   -0.6124    1.4782    0.0000 H   0  0  0  0  0  0  0  0  0  0  0  0
   -1.3856   -0.8000    0.0000 C   0  0  0  0  0  0  0  0  0  0  0  0
   -1.9981   -2.2782    0.0000 H   0  0  0  0  0  0  0  0  0  0  0  0
   -0.7732   -2.2782    0.0000 H   0  0  0  0  0  0  0  0  0  0  0  0
   -2.7713    0.0000    0.0000 C   0  0  0  0  0  0  0  0  0  0  0  0
   -2.1589    1.4782    0.0000 H   0  0  0  0  0  0  0  0  0  0  0  0
   -3.3837    1.4782    0.0000 H   0  0  0  0  0  0  0  0  0  0  0  0
   -4.1569   -0.8000    0.0000 C   0  0  0  0  0  0  0  0  0  0  0  0
   -4.7693   -2.2782    0.0000 H   0  0  0  0  0  0  0  0  0  0  0  0
   -3.5445   -2.2782    0.0000 H   0  0  0  0  0  0  0  0  0  0  0  0
   -5.5426    0.0000    0.0000 C   0  0  0  0  0  0  0  0  0  0  0  0
   -4.9301    1.4782    0.0000 H   0  0  0  0  0  0  0  0  0  0  0  0
   -6.1550    1.4782    0.0000 H   0  0  0  0  0  0  0  0  0  0  0  0
   -6.9282   -0.8000    0.0000 C   0  0  0  0  0  0  0  0  0  0  0  0
   -7.5406   -2.2782    0.0000 H   0  0  0  0  0  0  0  0  0  0  0  0
   -6.3158   -2.2782    0.0000 H   0  0  0  0  0  0  0  0  0  0  0  0
   -8.3138    0.0000    0.0000 C   0  0  0  0  0  0  0  0  0  0  0  0
   -7.7014    1.4782    0.0000 H   0  0  0  0  0  0  0  0  0  0  0  0
   -8.9263    1.4782    0.0000 H   0  0  0  0  0  0  0  0  0  0  0  0
   -9.6995   -0.8000    0.0000 C   0  0  0  0  0  0  0  0  0  0  0  0
  -11.0851   -1.6000    0.0000 H   0  0  0  0  0  0  0  0  0  0  0  0
  -11.0851    0.0000    0.0000 H   0  0  0  0  0  0  0  0  0  0  0  0
   -9.6995   -2.4000    0.0000 H   0  0  0  0  0  0  0  0  0  0  0  0
    8.3138    1.6000    0.0000 Cl  0  0  0  0  0  0  0  0  0  0  0  0
  1  2  1  0  0  0  0
  1  3  1  0  0  0  0
  1  4  1  0  0  0  0
  4  5  1  0  0  0  0
  4  6  1  0  0  0  0
  4  7  1  0  0  0  0
  7  8  1  0  0  0  0
  7  9  1  0  0  0  0
  7 10  1  0  0  0  0
 10 11  1  0  0  0  0
 10 12  1  0  0  0  0
 10 13  1  0  0  0  0
 13 14  1  0  0  0  0
 13 15  1  0  0  0  0
 13 16  1  0  0  0  0
 16 17  1  0  0  0  0
 16 18  1  0  0  0  0
 16 19  1  0  0  0  0
 19 20  1  0  0  0  0
 19 21  1  0  0  0  0
 19 22  1  0  0  0  0
 22 23  1  0  0  0  0
 22 24  1  0  0  0  0
 22 25  1  0  0  0  0
 25 26  1  0  0  0  0
 25 27  1  0  0  0  0
 25 28  1  0  0  0  0
 28 29  1  0  0  0  0
 28 30  1  0  0  0  0
 28 31  1  0  0  0  0
 31 32  1  0  0  0  0
 31 33  1  0  0  0  0
 31 34  1  0  0  0  0
 34 35  1  0  0  0  0
 34 36  1  0  0  0  0
 34 37  1  0  0  0  0
 37 38  1  0  0  0  0
 37 39  1  0  0  0  0
 37 40  1  0  0  0  0
 40 41  1  0  0  0  0
 40 42  1  0  0  0  0
 40 43  1  0  0  0  0
  1 44  1  0  0  0  0
M  END
> <ChemID>
102122

> <source_casrn>
2425-54-9

> <CAS>
2425-54-9

> <SMILES>
CCCCCCCCCCCCCCCl

> <NAME>
1-CHLOROTETRADECANE

> <preferred_name>
1-Chlorotetradecane

> <iupac>
1-chlorotetradecane

> <MPID>
26677

> <dsstox_substance_id>
DTXSID1027471

> <Canonical_QSARr>
CCCCCCCCCCCCCCCl

> <InChI_Code_QSARr>
InChI=1S/C14H29Cl/c1-2-3-4-5-6-7-8-9-10-11-12-13-14-15/h2-14H2,1H3

> <InChI Key_QSARr>
RNHWYOLIEJIAMV-UHFFFAOYSA-N

> <Salt_Solvent>
?

> <LogVP>
-3.1391

$$$$
102126
  -INDIGO-08031723152D

 20 19  0  0  0  0  0  0  0  0999 V2000
    0.0001    0.0000    0.0000 C   0  0  0  0  0  0  0  0  0  0  0  0
    0.6122   -1.4782    0.0000 H   0  0  0  0  0  0  0  0  0  0  0  0
   -0.6122   -1.4782    0.0000 H   0  0  0  0  0  0  0  0  0  0  0  0
   -1.3856    0.8000    0.0000 C   0  0  0  0  0  0  0  0  0  0  0  0
   -1.9979    2.2782    0.0000 H   0  0  0  0  0  0  0  0  0  0  0  0
   -0.7734    2.2782    0.0000 H   0  0  0  0  0  0  0  0  0  0  0  0
   -2.7712    0.0000    0.0000 C   0  0  0  0  0  0  0  0  0  0  0  0
   -2.1589   -1.4782    0.0000 H   0  0  0  0  0  0  0  0  0  0  0  0
   -3.3836   -1.4782    0.0000 H   0  0  0  0  0  0  0  0  0  0  0  0
   -4.1569    0.8000    0.0000 C   0  0  0  0  0  0  0  0  0  0  0  0
   -5.5426    1.6000    0.0000 N   0  0  0  0  0  0  0  0  0  0  0  0
    1.3856    0.8000    0.0000 C   0  0  0  0  0  0  0  0  0  0  0  0
    0.7734    2.2782    0.0000 H   0  0  0  0  0  0  0  0  0  0  0  0
    1.9979    2.2782    0.0000 H   0  0  0  0  0  0  0  0  0  0  0  0
    2.7712    0.0000    0.0000 C   0  0  0  0  0  0  0  0  0  0  0  0
    3.3836   -1.4782    0.0000 H   0  0  0  0  0  0  0  0  0  0  0  0
    2.1589   -1.4782    0.0000 H   0  0  0  0  0  0  0  0  0  0  0  0
    4.1569    0.8000    0.0000 N   0  0  0  0  0  0  0  0  0  0  0  0
    5.5426    0.0000    0.0000 H   0  0  0  0  0  0  0  0  0  0  0  0
    4.1569    2.4000    0.0000 H   0  0  0  0  0  0  0  0  0  0  0  0
  1  2  1  0  0  0  0
  1  3  1  0  0  0  0
  1  4  1  0  0  0  0
  4  5  1  0  0  0  0
  4  6  1  0  0  0  0
  4  7  1  0  0  0  0
  7  8  1  0  0  0  0
  7  9  1  0  0  0  0
  7 10  1  0  0  0  0
 10 11  3  0  0  0  0
  1 12  1  0  0  0  0
 12 13  1  0  0  0  0
 12 14  1  0  0  0  0
 12 15  1  0  0  0  0
 15 16  1  0  0  0  0
 15 17  1  0  0  0  0
 15 18  1  0  0  0  0
 18 19  1  0  0  0  0
 18 20  1  0  0  0  0
M  END
> <ChemID>
102126

> <source_casrn>
2432-74-8

> <CAS>
2432-74-8

> <SMILES>
NCCCCCC#N

> <NAME>
6-Aminohexanenitrile

> <preferred_name>
Hexanenitrile, 6-amino-

> <iupac>
6-Aminohexanenitrile

> <MPID>
26681

> <dsstox_substance_id>
DTXSID6062416

> <Canonical_QSARr>
NCCCCCC#N

> <InChI_Code_QSARr>
InChI=1S/C6H12N2/c7-5-3-1-2-4-6-8/h1-5,7H2

> <InChI Key_QSARr>
KBMSFJFLSXLIDJ-UHFFFAOYSA-N

> <Salt_Solvent>
?

> <LogVP>
-0.7447

$$$$
102130
  -INDIGO-08031723152D

 24 24  0  0  0  0  0  0  0  0999 V2000
   -3.1999   -0.0000    0.0000 C   0  0  0  0  0  0  0  0  0  0  0  0
   -2.4000    1.3857    0.0000 O   0  0  0  0  0  0  0  0  0  0  0  0
   -2.4000   -1.3856    0.0000 C   0  0  0  0  0  0  0  0  0  0  0  0
   -0.8000   -1.3856    0.0000 C   0  0  0  0  0  0  0  0  0  0  0  0
    0.0000   -0.0000    0.0000 C   0  0  0  0  0  0  0  0  0  0  0  0
   -1.3857    0.8001    0.0000 H   0  0  0  0  0  0  0  0  0  0  0  0
    0.5472    1.5035    0.0000 C   0  0  0  0  0  0  0  0  0  0  0  0
    1.0945    3.0070    0.0000 H   0  0  0  0  0  0  0  0  0  0  0  0
    2.1229    1.7814    0.0000 H   0  0  0  0  0  0  0  0  0  0  0  0
   -0.4812    2.7291    0.0000 H   0  0  0  0  0  0  0  0  0  0  0  0
    1.3856   -0.8000    0.0000 C   0  0  0  0  0  0  0  0  0  0  0  0
    2.7713   -1.6000    0.0000 H   0  0  0  0  0  0  0  0  0  0  0  0
    2.7713   -0.0000    0.0000 H   0  0  0  0  0  0  0  0  0  0  0  0
    1.3856    0.8001    0.0000 H   0  0  0  0  0  0  0  0  0  0  0  0
    0.0000   -2.7712    0.0000 C   0  0  0  0  0  0  0  0  0  0  0  0
    1.6001   -2.7712    0.0000 H   0  0  0  0  0  0  0  0  0  0  0  0
   -0.8000   -4.1570    0.0000 C   0  0  0  0  0  0  0  0  0  0  0  0
    0.0000   -5.5426    0.0000 H   0  0  0  0  0  0  0  0  0  0  0  0
   -2.4000   -4.1570    0.0000 C   0  0  0  0  0  0  0  0  0  0  0  0
   -3.1999   -5.5426    0.0000 H   0  0  0  0  0  0  0  0  0  0  0  0
   -3.1999   -2.7712    0.0000 C   0  0  0  0  0  0  0  0  0  0  0  0
   -4.8000   -2.7712    0.0000 H   0  0  0  0  0  0  0  0  0  0  0  0
   -4.8000   -0.0000    0.0000 O   0  0  0  0  0  0  0  0  0  0  0  0
   -5.6000    1.3857    0.0000 H   0  0  0  0  0  0  0  0  0  0  0  0
  1  2  2  0  0  0  0
  1  3  1  0  0  0  0
  3  4  1  0  0  0  0
  4  5  1  0  0  0  0
  5  6  1  0  0  0  0
  5  7  1  0  0  0  0
  7  8  1  0  0  0  0
  7  9  1  0  0  0  0
  7 10  1  0  0  0  0
  5 11  1  0  0  0  0
 11 12  1  0  0  0  0
 11 13  1  0  0  0  0
 11 14  1  0  0  0  0
  4 15  2  0  0  0  0
 15 16  1  0  0  0  0
 15 17  1  0  0  0  0
 17 18  1  0  0  0  0
 17 19  2  0  0  0  0
 19 20  1  0  0  0  0
 19 21  1  0  0  0  0
 21  3  2  0  0  0  0
 21 22  1  0  0  0  0
  1 23  1  0  0  0  0
 23 24  1  0  0  0  0
M  END
> <ChemID>
102130

> <source_casrn>
2438-04-2

> <CAS>
939-48-0

> <SMILES>
CC(C)c1ccccc1C(O)=O

> <NAME>
O-ISOPROPYLBENZOIC ACID

> <preferred_name>


> <iupac>


> <MPID>
26685

> <dsstox_substance_id>
DTXSID9044746

> <Canonical_QSARr>
CC(C)c1ccccc1C(O)=O

> <InChI_Code_QSARr>
InChI=1S/C10H12O2/c1-7(2)8-5-3-4-6-9(8)10(11)12/h3-7H,1-2H3,(H,11,12)

> <InChI Key_QSARr>
BANZVKGLDQDFDV-UHFFFAOYSA-N

> <Salt_Solvent>
?

> <LogVP>
-3.4593

$$$$
102132
  -INDIGO-08031723152D

 45 44  0  0  0  0  0  0  0  0999 V2000
   -2.7711    0.0000    0.0000 C   0  0  0  0  0  0  0  0  0  0  0  0
   -2.1592   -1.4782    0.0000 H   0  0  0  0  0  0  0  0  0  0  0  0
   -3.3834   -1.4782    0.0000 H   0  0  0  0  0  0  0  0  0  0  0  0
   -1.3855    0.8000    0.0000 C   0  0  0  0  0  0  0  0  0  0  0  0
   -1.9978    2.2782    0.0000 H   0  0  0  0  0  0  0  0  0  0  0  0
   -0.7735    2.2782    0.0000 H   0  0  0  0  0  0  0  0  0  0  0  0
   -0.0001    0.0000    0.0000 C   0  0  0  0  0  0  0  0  0  0  0  0
    0.6122   -1.4782    0.0000 H   0  0  0  0  0  0  0  0  0  0  0  0
   -0.6121   -1.4782    0.0000 H   0  0  0  0  0  0  0  0  0  0  0  0
    1.3855    0.8000    0.0000 C   0  0  0  0  0  0  0  0  0  0  0  0
    0.7732    2.2782    0.0000 H   0  0  0  0  0  0  0  0  0  0  0  0
    1.9978    2.2782    0.0000 H   0  0  0  0  0  0  0  0  0  0  0  0
    2.7712    0.0000    0.0000 C   0  0  0  0  0  0  0  0  0  0  0  0
    3.3835   -1.4782    0.0000 H   0  0  0  0  0  0  0  0  0  0  0  0
    2.1589   -1.4782    0.0000 H   0  0  0  0  0  0  0  0  0  0  0  0
    4.1568    0.8000    0.0000 C   0  0  0  0  0  0  0  0  0  0  0  0
    3.5445    2.2782    0.0000 H   0  0  0  0  0  0  0  0  0  0  0  0
    4.7692    2.2782    0.0000 H   0  0  0  0  0  0  0  0  0  0  0  0
    5.5425    0.0000    0.0000 C   0  0  0  0  0  0  0  0  0  0  0  0
    6.1548   -1.4782    0.0000 H   0  0  0  0  0  0  0  0  0  0  0  0
    4.9302   -1.4782    0.0000 H   0  0  0  0  0  0  0  0  0  0  0  0
    6.9282    0.8000    0.0000 C   0  0  0  0  0  0  0  0  0  0  0  0
    6.3158    2.2782    0.0000 H   0  0  0  0  0  0  0  0  0  0  0  0
    7.5405    2.2782    0.0000 H   0  0  0  0  0  0  0  0  0  0  0  0
    8.3138    0.0000    0.0000 C   0  0  0  0  0  0  0  0  0  0  0  0
    9.6995   -0.8000    0.0000 H   0  0  0  0  0  0  0  0  0  0  0  0
    9.6995    0.8000    0.0000 H   0  0  0  0  0  0  0  0  0  0  0  0
    8.3138   -1.6000    0.0000 H   0  0  0  0  0  0  0  0  0  0  0  0
   -4.1568    0.8000    0.0000 C   0  0  0  0  0  0  0  0  0  0  0  0
   -4.7691    2.2782    0.0000 H   0  0  0  0  0  0  0  0  0  0  0  0
   -3.5445    2.2782    0.0000 H   0  0  0  0  0  0  0  0  0  0  0  0
   -5.5425    0.0000    0.0000 C   0  0  0  0  0  0  0  0  0  0  0  0
   -4.9301   -1.4782    0.0000 H   0  0  0  0  0  0  0  0  0  0  0  0
   -6.1548   -1.4782    0.0000 H   0  0  0  0  0  0  0  0  0  0  0  0
   -6.9281    0.8000    0.0000 C   0  0  0  0  0  0  0  0  0  0  0  0
   -7.5404    2.2782    0.0000 H   0  0  0  0  0  0  0  0  0  0  0  0
   -6.3158    2.2782    0.0000 H   0  0  0  0  0  0  0  0  0  0  0  0
   -8.3138    0.0000    0.0000 N   0  0  0  0  0  0  0  0  0  0  0  0
   -8.3138   -1.6000    0.0000 H   0  0  0  0  0  0  0  0  0  0  0  0
   -9.6994    0.8000    0.0000 C   0  0  0  0  0  0  0  0  0  0  0  0
  -11.0851    0.0000    0.0000 N   0  0  0  0  0  0  0  0  0  0  0  0
  -12.4708    0.8000    0.0000 H   0  0  0  0  0  0  0  0  0  0  0  0
  -11.0851   -1.6000    0.0000 H   0  0  0  0  0  0  0  0  0  0  0  0
   -9.6994    2.4000    0.0000 N   0  0  0  0  0  0  0  0  0  0  0  0
  -11.0851    3.2000    0.0000 H   0  0  0  0  0  0  0  0  0  0  0  0
  1  2  1  0  0  0  0
  1  3  1  0  0  0  0
  1  4  1  0  0  0  0
  4  5  1  0  0  0  0
  4  6  1  0  0  0  0
  4  7  1  0  0  0  0
  7  8  1  0  0  0  0
  7  9  1  0  0  0  0
  7 10  1  0  0  0  0
 10 11  1  0  0  0  0
 10 12  1  0  0  0  0
 10 13  1  0  0  0  0
 13 14  1  0  0  0  0
 13 15  1  0  0  0  0
 13 16  1  0  0  0  0
 16 17  1  0  0  0  0
 16 18  1  0  0  0  0
 16 19  1  0  0  0  0
 19 20  1  0  0  0  0
 19 21  1  0  0  0  0
 19 22  1  0  0  0  0
 22 23  1  0  0  0  0
 22 24  1  0  0  0  0
 22 25  1  0  0  0  0
 25 26  1  0  0  0  0
 25 27  1  0  0  0  0
 25 28  1  0  0  0  0
  1 29  1  0  0  0  0
 29 30  1  0  0  0  0
 29 31  1  0  0  0  0
 29 32  1  0  0  0  0
 32 33  1  0  0  0  0
 32 34  1  0  0  0  0
 32 35  1  0  0  0  0
 35 36  1  0  0  0  0
 35 37  1  0  0  0  0
 35 38  1  0  0  0  0
 38 39  1  0  0  0  0
 38 40  1  0  0  0  0
 40 41  1  0  0  0  0
 41 42  1  0  0  0  0
 41 43  1  0  0  0  0
 40 44  2  0  0  0  0
 44 45  1  0  0  0  0
M  END
> <ChemID>
102132

> <source_casrn>
2439-10-3

> <CAS>
2439-10-3

> <SMILES>
CC(O)=O.CCCCCCCCCCCCNC(N)=N

> <NAME>
DODINE

> <preferred_name>
Dodine

> <iupac>
1-dodecylguanidine acetate (1:1)

> <MPID>
26687

> <dsstox_substance_id>
DTXSID3020548

> <Canonical_QSARr>
CCCCCCCCCCCCNC(N)=N

> <InChI_Code_QSARr>
InChI=1S/C13H29N3/c1-2-3-4-5-6-7-8-9-10-11-12-16-13(14)15/h2-12H2,1H3,(H4,14,15,16)

> <InChI Key_QSARr>
HILAYQUKKYWPJW-UHFFFAOYSA-N

> <Salt_Solvent>
CC(=O)O

> <LogVP>
-6.8239

$$$$
102135
  -INDIGO-08031723152D

 57 56  0  0  0  0  0  0  0  0999 V2000
    6.9280    0.8000    0.0000 O   0  0  0  0  0  0  0  0  0  0  0  0
    8.3137   -0.0000    0.0000 C   0  0  0  0  0  0  0  0  0  0  0  0
    8.9261   -1.4782    0.0000 H   0  0  0  0  0  0  0  0  0  0  0  0
    7.7014   -1.4782    0.0000 H   0  0  0  0  0  0  0  0  0  0  0  0
    9.6995    0.8000    0.0000 C   0  0  0  0  0  0  0  0  0  0  0  0
    9.0872    2.2782    0.0000 H   0  0  0  0  0  0  0  0  0  0  0  0
   10.3118    2.2782    0.0000 H   0  0  0  0  0  0  0  0  0  0  0  0
   11.0852   -0.0000    0.0000 C   0  0  0  0  0  0  0  0  0  0  0  0
   11.6975   -1.4782    0.0000 H   0  0  0  0  0  0  0  0  0  0  0  0
   10.4729   -1.4782    0.0000 H   0  0  0  0  0  0  0  0  0  0  0  0
   12.4710    0.8000    0.0000 C   0  0  0  0  0  0  0  0  0  0  0  0
   11.8587    2.2782    0.0000 H   0  0  0  0  0  0  0  0  0  0  0  0
   13.0829    2.2782    0.0000 H   0  0  0  0  0  0  0  0  0  0  0  0
   13.8563   -0.0000    0.0000 C   0  0  0  0  0  0  0  0  0  0  0  0
   14.4686   -1.4782    0.0000 H   0  0  0  0  0  0  0  0  0  0  0  0
   13.2440   -1.4782    0.0000 H   0  0  0  0  0  0  0  0  0  0  0  0
   15.2420    0.8000    0.0000 C   0  0  0  0  0  0  0  0  0  0  0  0
   14.6297    2.2782    0.0000 H   0  0  0  0  0  0  0  0  0  0  0  0
   15.8544    2.2782    0.0000 H   0  0  0  0  0  0  0  0  0  0  0  0
   16.6278   -0.0000    0.0000 C   0  0  0  0  0  0  0  0  0  0  0  0
   17.2401   -1.4782    0.0000 H   0  0  0  0  0  0  0  0  0  0  0  0
   16.0155   -1.4782    0.0000 H   0  0  0  0  0  0  0  0  0  0  0  0
   18.0131    0.8000    0.0000 C   0  0  0  0  0  0  0  0  0  0  0  0
   17.4012    2.2782    0.0000 H   0  0  0  0  0  0  0  0  0  0  0  0
   18.6254    2.2782    0.0000 H   0  0  0  0  0  0  0  0  0  0  0  0
   19.3989   -0.0000    0.0000 C   0  0  0  0  0  0  0  0  0  0  0  0
   20.7846   -0.8000    0.0000 H   0  0  0  0  0  0  0  0  0  0  0  0
   20.7846    0.8000    0.0000 H   0  0  0  0  0  0  0  0  0  0  0  0
   19.3989   -1.6000    0.0000 H   0  0  0  0  0  0  0  0  0  0  0  0
    5.5427   -0.0000    0.0000 C   0  0  0  0  0  0  0  0  0  0  0  0
    6.1550   -1.4782    0.0000 H   0  0  0  0  0  0  0  0  0  0  0  0
    4.9304   -1.4782    0.0000 H   0  0  0  0  0  0  0  0  0  0  0  0
    4.1569    0.8000    0.0000 C   0  0  0  0  0  0  0  0  0  0  0  0
    3.5446    2.2782    0.0000 H   0  0  0  0  0  0  0  0  0  0  0  0
    4.7692    2.2782    0.0000 H   0  0  0  0  0  0  0  0  0  0  0  0
    2.7712   -0.0000    0.0000 C   0  0  0  0  0  0  0  0  0  0  0  0
    3.3835   -1.4782    0.0000 H   0  0  0  0  0  0  0  0  0  0  0  0
    2.1589   -1.4782    0.0000 H   0  0  0  0  0  0  0  0  0  0  0  0
    1.3854    0.8000    0.0000 C   0  0  0  0  0  0  0  0  0  0  0  0
    0.7735    2.2782    0.0000 H   0  0  0  0  0  0  0  0  0  0  0  0
    1.9977    2.2782    0.0000 H   0  0  0  0  0  0  0  0  0  0  0  0
    0.0001   -0.0000    0.0000 C   0  0  0  0  0  0  0  0  0  0  0  0
    0.6124   -1.4782    0.0000 H   0  0  0  0  0  0  0  0  0  0  0  0
   -0.6122   -1.4782    0.0000 H   0  0  0  0  0  0  0  0  0  0  0  0
   -1.3856    0.8000    0.0000 C   0  0  0  0  0  0  0  0  0  0  0  0
   -1.9980    2.2782    0.0000 H   0  0  0  0  0  0  0  0  0  0  0  0
   -0.7733    2.2782    0.0000 H   0  0  0  0  0  0  0  0  0  0  0  0
   -2.7714   -0.0000    0.0000 C   0  0  0  0  0  0  0  0  0  0  0  0
   -2.1591   -1.4782    0.0000 H   0  0  0  0  0  0  0  0  0  0  0  0
   -3.3837   -1.4782    0.0000 H   0  0  0  0  0  0  0  0  0  0  0  0
   -4.1567    0.8000    0.0000 C   0  0  0  0  0  0  0  0  0  0  0  0
   -4.7690    2.2782    0.0000 H   0  0  0  0  0  0  0  0  0  0  0  0
   -3.5448    2.2782    0.0000 H   0  0  0  0  0  0  0  0  0  0  0  0
   -5.5425   -0.0000    0.0000 C   0  0  0  0  0  0  0  0  0  0  0  0
   -6.9282   -0.8000    0.0000 H   0  0  0  0  0  0  0  0  0  0  0  0
   -6.9282    0.8000    0.0000 H   0  0  0  0  0  0  0  0  0  0  0  0
   -5.5425   -1.6000    0.0000 H   0  0  0  0  0  0  0  0  0  0  0  0
  1  2  1  0  0  0  0
  2  3  1  0  0  0  0
  2  4  1  0  0  0  0
  2  5  1  0  0  0  0
  5  6  1  0  0  0  0
  5  7  1  0  0  0  0
  5  8  1  0  0  0  0
  8  9  1  0  0  0  0
  8 10  1  0  0  0  0
  8 11  1  0  0  0  0
 11 12  1  0  0  0  0
 11 13  1  0  0  0  0
 11 14  1  0  0  0  0
 14 15  1  0  0  0  0
 14 16  1  0  0  0  0
 14 17  1  0  0  0  0
 17 18  1  0  0  0  0
 17 19  1  0  0  0  0
 17 20  1  0  0  0  0
 20 21  1  0  0  0  0
 20 22  1  0  0  0  0
 20 23  1  0  0  0  0
 23 24  1  0  0  0  0
 23 25  1  0  0  0  0
 23 26  1  0  0  0  0
 26 27  1  0  0  0  0
 26 28  1  0  0  0  0
 26 29  1  0  0  0  0
  1 30  1  0  0  0  0
 30 31  1  0  0  0  0
 30 32  1  0  0  0  0
 30 33  1  0  0  0  0
 33 34  1  0  0  0  0
 33 35  1  0  0  0  0
 33 36  1  0  0  0  0
 36 37  1  0  0  0  0
 36 38  1  0  0  0  0
 36 39  1  0  0  0  0
 39 40  1  0  0  0  0
 39 41  1  0  0  0  0
 39 42  1  0  0  0  0
 42 43  1  0  0  0  0
 42 44  1  0  0  0  0
 42 45  1  0  0  0  0
 45 46  1  0  0  0  0
 45 47  1  0  0  0  0
 45 48  1  0  0  0  0
 48 49  1  0  0  0  0
 48 50  1  0  0  0  0
 48 51  1  0  0  0  0
 51 52  1  0  0  0  0
 51 53  1  0  0  0  0
 51 54  1  0  0  0  0
 54 55  1  0  0  0  0
 54 56  1  0  0  0  0
 54 57  1  0  0  0  0
M  END
> <ChemID>
102135

> <source_casrn>
2456-27-1

> <CAS>
2456-27-1

> <SMILES>
CCCCCCCCCOCCCCCCCCC

> <NAME>
DINONYL ETHER

> <preferred_name>
Dinonyl ether

> <iupac>
1-nonoxynonane

> <MPID>
26690

> <dsstox_substance_id>
DTXSID70179297

> <Canonical_QSARr>
CCCCCCCCCOCCCCCCCCC

> <InChI_Code_QSARr>
InChI=1S/C18H38O/c1-3-5-7-9-11-13-15-17-19-18-16-14-12-10-8-6-4-2/h3-18H2,1-2H3

> <InChI Key_QSARr>
DKZRLCHWDNEKRH-UHFFFAOYSA-N

> <Salt_Solvent>
?

> <LogVP>
-4.2793

$$$$
102139
  -INDIGO-08031723152D

 30 33  0  0  0  0  0  0  0  0999 V2000
   -0.9406   -1.2944    0.0000 N   0  0  0  0  0  0  0  0  0  0  0  0
   -0.4461   -2.8161    0.0000 H   0  0  0  0  0  0  0  0  0  0  0  0
   -0.0000    0.0000    0.0000 C   0  0  0  0  0  0  0  0  0  0  0  0
    1.6000    0.0000    0.0000 C   0  0  0  0  0  0  0  0  0  0  0  0
    2.5406   -1.2944    0.0000 N   0  0  0  0  0  0  0  0  0  0  0  0
    2.0461   -2.8161    0.0000 H   0  0  0  0  0  0  0  0  0  0  0  0
    4.0621   -0.8000    0.0000 C   0  0  0  0  0  0  0  0  0  0  0  0
    4.0621    0.8000    0.0000 C   0  0  0  0  0  0  0  0  0  0  0  0
    5.4477    1.6000    0.0000 C   0  0  0  0  0  0  0  0  0  0  0  0
    5.4477    3.2000    0.0000 H   0  0  0  0  0  0  0  0  0  0  0  0
    6.8334    0.8000    0.0000 C   0  0  0  0  0  0  0  0  0  0  0  0
    6.8334   -0.8000    0.0000 C   0  0  0  0  0  0  0  0  0  0  0  0
    8.2191   -1.6000    0.0000 H   0  0  0  0  0  0  0  0  0  0  0  0
    5.4477   -1.6000    0.0000 C   0  0  0  0  0  0  0  0  0  0  0  0
    5.4477   -3.2000    0.0000 Br  0  0  0  0  0  0  0  0  0  0  0  0
    8.2191    1.6000    0.0000 Br  0  0  0  0  0  0  0  0  0  0  0  0
    2.5406    1.2944    0.0000 C   0  0  0  0  0  0  0  0  0  0  0  0
    2.0461    2.8161    0.0000 O   0  0  0  0  0  0  0  0  0  0  0  0
   -0.9406    1.2944    0.0000 C   0  0  0  0  0  0  0  0  0  0  0  0
   -0.4461    2.8161    0.0000 O   0  0  0  0  0  0  0  0  0  0  0  0
   -2.4621    0.8000    0.0000 C   0  0  0  0  0  0  0  0  0  0  0  0
   -2.4621   -0.8000    0.0000 C   0  0  0  0  0  0  0  0  0  0  0  0
   -3.8477   -1.6000    0.0000 C   0  0  0  0  0  0  0  0  0  0  0  0
   -5.2334   -0.8000    0.0000 C   0  0  0  0  0  0  0  0  0  0  0  0
   -6.6191   -1.6000    0.0000 H   0  0  0  0  0  0  0  0  0  0  0  0
   -5.2334    0.8000    0.0000 C   0  0  0  0  0  0  0  0  0  0  0  0
   -3.8477    1.6000    0.0000 C   0  0  0  0  0  0  0  0  0  0  0  0
   -3.8477    3.2000    0.0000 H   0  0  0  0  0  0  0  0  0  0  0  0
   -6.6191    1.6000    0.0000 Br  0  0  0  0  0  0  0  0  0  0  0  0
   -3.8477   -3.2000    0.0000 Br  0  0  0  0  0  0  0  0  0  0  0  0
  1  2  1  0  0  0  0
  1  3  1  0  0  0  0
  3  4  2  0  0  0  0
  4  5  1  0  0  0  0
  5  6  1  0  0  0  0
  5  7  1  0  0  0  0
  7  8  1  0  0  0  0
  8  9  2  0  0  0  0
  9 10  1  0  0  0  0
  9 11  1  0  0  0  0
 11 12  2  0  0  0  0
 12 13  1  0  0  0  0
 12 14  1  0  0  0  0
 14  7  2  0  0  0  0
 14 15  1  0  0  0  0
 11 16  1  0  0  0  0
  8 17  1  0  0  0  0
 17  4  1  0  0  0  0
 17 18  2  0  0  0  0
  3 19  1  0  0  0  0
 19 20  2  0  0  0  0
 19 21  1  0  0  0  0
 21 22  1  0  0  0  0
 22  1  1  0  0  0  0
 22 23  2  0  0  0  0
 23 24  1  0  0  0  0
 24 25  1  0  0  0  0
 24 26  2  0  0  0  0
 26 27  1  0  0  0  0
 27 21  2  0  0  0  0
 27 28  1  0  0  0  0
 26 29  1  0  0  0  0
 23 30  1  0  0  0  0
M  END
> <ChemID>
102139

> <source_casrn>
2475-31-2

> <CAS>
2475-31-2

> <SMILES>
O=C1/C(/Nc2c1cc(Br)cc2Br)=C1\Nc2c(cc(Br)cc2Br)C\1=O

> <NAME>
C.I. VAT BLUE 5

> <preferred_name>
Vat Blue 4B

> <iupac>
(2E)-5,7-dibromo-2-(5,7-dibromo-3-oxo-1,3-dihydro-2H-indol-2-ylidene)-1,2-dihydro-3H-indol-3-one

> <MPID>
26694

> <dsstox_substance_id>
DTXSID7044891

> <Canonical_QSARr>
O=C1C(Nc2c1cc(Br)cc2Br)=C1Nc2c(cc(Br)cc2Br)C1=O

> <InChI_Code_QSARr>
InChI=1S/C16H6Br4N2O2/c17-5-1-7-11(9(19)3-5)21-13(15(7)23)14-16(24)8-2-6(18)4-10(20)12(8)22-14/h1-4,21-22H/b14-13-

> <InChI Key_QSARr>
PTWYQANXSNMUTI-YPKPFQOOSA-N

> <Salt_Solvent>
?

> <LogVP>
-11.0969

$$$$
102143
  -INDIGO-08031723152D

 17 16  0  0  0  0  0  0  0  0999 V2000
    0.0001    0.0000    0.0000 Si  0  0  0  0  0  0  0  0  0  0  0  0
    0.8000   -1.3856    0.0000 H   0  0  0  0  0  0  0  0  0  0  0  0
    1.6001    0.0000    0.0000 O   0  0  0  0  0  0  0  0  0  0  0  0
    2.4000   -1.3856    0.0000 C   0  0  0  0  0  0  0  0  0  0  0  0
    4.0000   -1.3856    0.0000 H   0  0  0  0  0  0  0  0  0  0  0  0
    3.2001   -2.7713    0.0000 H   0  0  0  0  0  0  0  0  0  0  0  0
    1.6001   -2.7713    0.0000 H   0  0  0  0  0  0  0  0  0  0  0  0
    0.8000    1.3856    0.0000 O   0  0  0  0  0  0  0  0  0  0  0  0
    0.0001    2.7713    0.0000 C   0  0  0  0  0  0  0  0  0  0  0  0
   -0.8000    4.1569    0.0000 H   0  0  0  0  0  0  0  0  0  0  0  0
    0.8000    4.1569    0.0000 H   0  0  0  0  0  0  0  0  0  0  0  0
   -1.5999    2.7713    0.0000 H   0  0  0  0  0  0  0  0  0  0  0  0
   -1.5999    0.0000    0.0000 O   0  0  0  0  0  0  0  0  0  0  0  0
   -2.4000   -1.3856    0.0000 C   0  0  0  0  0  0  0  0  0  0  0  0
   -3.2001   -2.7713    0.0000 H   0  0  0  0  0  0  0  0  0  0  0  0
   -4.0000   -1.3856    0.0000 H   0  0  0  0  0  0  0  0  0  0  0  0
   -1.5999   -2.7713    0.0000 H   0  0  0  0  0  0  0  0  0  0  0  0
  1  2  1  0  0  0  0
  1  3  1  0  0  0  0
  3  4  1  0  0  0  0
  4  5  1  0  0  0  0
  4  6  1  0  0  0  0
  4  7  1  0  0  0  0
  1  8  1  0  0  0  0
  8  9  1  0  0  0  0
  9 10  1  0  0  0  0
  9 11  1  0  0  0  0
  9 12  1  0  0  0  0
  1 13  1  0  0  0  0
 13 14  1  0  0  0  0
 14 15  1  0  0  0  0
 14 16  1  0  0  0  0
 14 17  1  0  0  0  0
M  END
> <ChemID>
102143

> <source_casrn>
2487-90-3

> <CAS>
2487-90-3

> <SMILES>
CO[SiH](OC)OC

> <NAME>
TRIMETHOXY SILANE

> <preferred_name>
Trimethoxysilane

> <iupac>
trimethoxysilane

> <MPID>
26698

> <dsstox_substance_id>
DTXSID0027482

> <Canonical_QSARr>
CO[SiH](OC)OC

> <InChI_Code_QSARr>
InChI=1S/C3H10O3Si/c1-4-7(5-2)6-3/h7H,1-3H3

> <InChI Key_QSARr>
YUYCVXFAYWRXLS-UHFFFAOYSA-N

> <Salt_Solvent>
?

> <LogVP>
1.8808

$$$$
102147
  -INDIGO-08031723152D

 13 12  0  0  0  0  0  0  0  0999 V2000
    0.0001    0.0000    0.0000 P   0  0  0  0  0  0  0  0  0  0  0  0
    1.3856    0.8000    0.0000 O   0  0  0  0  0  0  0  0  0  0  0  0
    2.7713    0.0000    0.0000 C   0  0  0  0  0  0  0  0  0  0  0  0
    4.1569   -0.8000    0.0000 H   0  0  0  0  0  0  0  0  0  0  0  0
    4.1569    0.8000    0.0000 H   0  0  0  0  0  0  0  0  0  0  0  0
    2.7713   -1.6000    0.0000 H   0  0  0  0  0  0  0  0  0  0  0  0
   -1.3856    0.8000    0.0000 O   0  0  0  0  0  0  0  0  0  0  0  0
   -2.7712    0.0000    0.0000 C   0  0  0  0  0  0  0  0  0  0  0  0
   -4.1569   -0.8000    0.0000 H   0  0  0  0  0  0  0  0  0  0  0  0
   -4.1569    0.8000    0.0000 H   0  0  0  0  0  0  0  0  0  0  0  0
   -2.7713   -1.6000    0.0000 H   0  0  0  0  0  0  0  0  0  0  0  0
   -0.6123   -1.4782    0.0000 S   0  0  0  0  0  0  0  0  0  0  0  0
    0.6123   -1.4782    0.0000 Cl  0  0  0  0  0  0  0  0  0  0  0  0
  1  2  1  0  0  0  0
  2  3  1  0  0  0  0
  3  4  1  0  0  0  0
  3  5  1  0  0  0  0
  3  6  1  0  0  0  0
  1  7  1  0  0  0  0
  7  8  1  0  0  0  0
  8  9  1  0  0  0  0
  8 10  1  0  0  0  0
  8 11  1  0  0  0  0
  1 12  2  0  0  0  0
  1 13  1  0  0  0  0
M  END
> <ChemID>
102147

> <source_casrn>
2524-03-0

> <CAS>
2524-03-0

> <SMILES>
COP(=S)(Cl)OC

> <NAME>
O,O-DIMETHYL PHOSPHOROCHLORIDOTHIOATE

> <preferred_name>
O,O-Dimethyl chlorothiophosphate

> <iupac>
O,O-dimethyl phosphorochloridothioate

> <MPID>
26702

> <dsstox_substance_id>
DTXSID0027486

> <Canonical_QSARr>
COP(=S)(Cl)OC

> <InChI_Code_QSARr>
InChI=1S/C2H6ClO2PS/c1-4-6(3,7)5-2/h1-2H3

> <InChI Key_QSARr>
XFBJRFNXPUCPKU-UHFFFAOYSA-N

> <Salt_Solvent>
?

> <LogVP>
-0.301

$$$$
102152
  -INDIGO-08031723152D

 38 38  0  0  0  0  0  0  0  0999 V2000
  -11.0851    3.2000    0.0000 Cl  0  0  0  0  0  0  0  0  0  0  0  0
  -12.4708    2.4000    0.0000 C   0  0  0  0  0  0  0  0  0  0  0  0
  -12.4708    0.8000    0.0000 C   0  0  0  0  0  0  0  0  0  0  0  0
  -11.0851    0.0000    0.0000 O   0  0  0  0  0  0  0  0  0  0  0  0
   -9.6995    0.8000    0.0000 C   0  0  0  0  0  0  0  0  0  0  0  0
   -9.0871    2.2782    0.0000 H   0  0  0  0  0  0  0  0  0  0  0  0
  -10.3119    2.2782    0.0000 H   0  0  0  0  0  0  0  0  0  0  0  0
   -8.3138    0.0000    0.0000 C   0  0  0  0  0  0  0  0  0  0  0  0
   -8.3138   -1.6000    0.0000 O   0  0  0  0  0  0  0  0  0  0  0  0
   -6.9282    0.8000    0.0000 O   0  0  0  0  0  0  0  0  0  0  0  0
   -5.5426    0.0000    0.0000 C   0  0  0  0  0  0  0  0  0  0  0  0
   -6.1550   -1.4782    0.0000 H   0  0  0  0  0  0  0  0  0  0  0  0
   -4.9301   -1.4782    0.0000 H   0  0  0  0  0  0  0  0  0  0  0  0
   -4.1569    0.8000    0.0000 C   0  0  0  0  0  0  0  0  0  0  0  0
   -3.5445    2.2782    0.0000 H   0  0  0  0  0  0  0  0  0  0  0  0
   -4.7693    2.2782    0.0000 H   0  0  0  0  0  0  0  0  0  0  0  0
   -2.7713    0.0000    0.0000 O   0  0  0  0  0  0  0  0  0  0  0  0
   -1.3856    0.8000    0.0000 C   0  0  0  0  0  0  0  0  0  0  0  0
   -0.7732    2.2782    0.0000 H   0  0  0  0  0  0  0  0  0  0  0  0
   -1.9981    2.2782    0.0000 H   0  0  0  0  0  0  0  0  0  0  0  0
    0.0000    0.0000    0.0000 C   0  0  0  0  0  0  0  0  0  0  0  0
   -0.6124   -1.4782    0.0000 H   0  0  0  0  0  0  0  0  0  0  0  0
    0.6124   -1.4782    0.0000 H   0  0  0  0  0  0  0  0  0  0  0  0
    1.3856    0.8000    0.0000 C   0  0  0  0  0  0  0  0  0  0  0  0
    1.9981    2.2782    0.0000 H   0  0  0  0  0  0  0  0  0  0  0  0
    0.7732    2.2782    0.0000 H   0  0  0  0  0  0  0  0  0  0  0  0
    2.7713    0.0000    0.0000 C   0  0  0  0  0  0  0  0  0  0  0  0
    4.1569   -0.8000    0.0000 H   0  0  0  0  0  0  0  0  0  0  0  0
    4.1569    0.8000    0.0000 H   0  0  0  0  0  0  0  0  0  0  0  0
    2.7713   -1.6000    0.0000 H   0  0  0  0  0  0  0  0  0  0  0  0
  -13.8564    0.0000    0.0000 C   0  0  0  0  0  0  0  0  0  0  0  0
  -13.8564   -1.6000    0.0000 H   0  0  0  0  0  0  0  0  0  0  0  0
  -15.2420    0.8000    0.0000 C   0  0  0  0  0  0  0  0  0  0  0  0
  -16.6277    0.0000    0.0000 Cl  0  0  0  0  0  0  0  0  0  0  0  0
  -15.2420    2.4000    0.0000 C   0  0  0  0  0  0  0  0  0  0  0  0
  -16.6277    3.2000    0.0000 Cl  0  0  0  0  0  0  0  0  0  0  0  0
  -13.8564    3.2000    0.0000 C   0  0  0  0  0  0  0  0  0  0  0  0
  -13.8564    4.8000    0.0000 H   0  0  0  0  0  0  0  0  0  0  0  0
  1  2  1  0  0  0  0
  2  3  1  0  0  0  0
  3  4  1  0  0  0  0
  4  5  1  0  0  0  0
  5  6  1  0  0  0  0
  5  7  1  0  0  0  0
  5  8  1  0  0  0  0
  8  9  2  0  0  0  0
  8 10  1  0  0  0  0
 10 11  1  0  0  0  0
 11 12  1  0  0  0  0
 11 13  1  0  0  0  0
 11 14  1  0  0  0  0
 14 15  1  0  0  0  0
 14 16  1  0  0  0  0
 14 17  1  0  0  0  0
 17 18  1  0  0  0  0
 18 19  1  0  0  0  0
 18 20  1  0  0  0  0
 18 21  1  0  0  0  0
 21 22  1  0  0  0  0
 21 23  1  0  0  0  0
 21 24  1  0  0  0  0
 24 25  1  0  0  0  0
 24 26  1  0  0  0  0
 24 27  1  0  0  0  0
 27 28  1  0  0  0  0
 27 29  1  0  0  0  0
 27 30  1  0  0  0  0
  3 31  2  0  0  0  0
 31 32  1  0  0  0  0
 31 33  1  0  0  0  0
 33 34  1  0  0  0  0
 33 35  2  0  0  0  0
 35 36  1  0  0  0  0
 35 37  1  0  0  0  0
 37  2  2  0  0  0  0
 37 38  1  0  0  0  0
M  END
> <ChemID>
102152

> <source_casrn>
2545-59-7

> <CAS>
2545-59-7

> <SMILES>
CCCCOCCOC(=O)COc1cc(Cl)c(Cl)cc1Cl

> <NAME>
2,4,5-T, BUTOXYETHYL ESTER

> <preferred_name>
2,4,5-T-butotyl

> <iupac>
2-butoxyethyl (2,4,5-trichlorophenoxy)acetate

> <MPID>
26706

> <dsstox_substance_id>
DTXSID3041328

> <Canonical_QSARr>
CCCCOCCOC(=O)COc1cc(Cl)c(Cl)cc1Cl

> <InChI_Code_QSARr>
InChI=1S/C14H17Cl3O4/c1-2-3-4-19-5-6-20-14(18)9-21-13-8-11(16)10(15)7-12(13)17/h7-8H,2-6,9H2,1H3

> <InChI Key_QSARr>
GLDWASBMYWLQGG-UHFFFAOYSA-N

> <Salt_Solvent>
?

> <LogVP>
-5.8239

$$$$
102156
  -INDIGO-08031723152D

 32 32  0  0  0  0  0  0  0  0999 V2000
   -6.9281   -0.8000    0.0000 C   0  0  0  0  0  0  0  0  0  0  0  0
   -5.5427   -0.0000    0.0000 O   0  0  0  0  0  0  0  0  0  0  0  0
   -4.1570   -0.8000    0.0000 C   0  0  0  0  0  0  0  0  0  0  0  0
   -2.7713   -0.0000    0.0000 C   0  0  0  0  0  0  0  0  0  0  0  0
   -2.7713    1.5999    0.0000 H   0  0  0  0  0  0  0  0  0  0  0  0
   -1.3857   -0.8000    0.0000 C   0  0  0  0  0  0  0  0  0  0  0  0
    0.0000   -0.0000    0.0000 C   0  0  0  0  0  0  0  0  0  0  0  0
    0.7999   -1.3856    0.0000 H   0  0  0  0  0  0  0  0  0  0  0  0
    1.5035    0.5473    0.0000 C   0  0  0  0  0  0  0  0  0  0  0  0
    3.0070    1.0945    0.0000 H   0  0  0  0  0  0  0  0  0  0  0  0
    2.7292   -0.4812    0.0000 H   0  0  0  0  0  0  0  0  0  0  0  0
    1.7813    2.1229    0.0000 H   0  0  0  0  0  0  0  0  0  0  0  0
   -0.7999    1.3857    0.0000 C   0  0  0  0  0  0  0  0  0  0  0  0
   -1.6001    2.7713    0.0000 H   0  0  0  0  0  0  0  0  0  0  0  0
    0.0000    2.7713    0.0000 H   0  0  0  0  0  0  0  0  0  0  0  0
    0.7999    1.3857    0.0000 H   0  0  0  0  0  0  0  0  0  0  0  0
   -1.3857   -2.4000    0.0000 C   0  0  0  0  0  0  0  0  0  0  0  0
    0.0000   -3.2000    0.0000 H   0  0  0  0  0  0  0  0  0  0  0  0
   -2.7713   -3.2000    0.0000 C   0  0  0  0  0  0  0  0  0  0  0  0
   -2.7713   -4.8000    0.0000 C   0  0  0  0  0  0  0  0  0  0  0  0
   -2.7713   -6.4000    0.0000 H   0  0  0  0  0  0  0  0  0  0  0  0
   -4.1570   -5.5999    0.0000 H   0  0  0  0  0  0  0  0  0  0  0  0
   -1.3857   -5.5999    0.0000 H   0  0  0  0  0  0  0  0  0  0  0  0
   -4.1570   -2.4000    0.0000 C   0  0  0  0  0  0  0  0  0  0  0  0
   -5.5427   -3.2000    0.0000 H   0  0  0  0  0  0  0  0  0  0  0  0
   -6.9281   -2.4000    0.0000 O   0  0  0  0  0  0  0  0  0  0  0  0
   -8.3138   -0.0000    0.0000 N   0  0  0  0  0  0  0  0  0  0  0  0
   -8.3138    1.5999    0.0000 H   0  0  0  0  0  0  0  0  0  0  0  0
   -9.6995   -0.8000    0.0000 C   0  0  0  0  0  0  0  0  0  0  0  0
  -11.0851   -1.6000    0.0000 H   0  0  0  0  0  0  0  0  0  0  0  0
  -11.0851   -0.0000    0.0000 H   0  0  0  0  0  0  0  0  0  0  0  0
   -9.6995   -2.4000    0.0000 H   0  0  0  0  0  0  0  0  0  0  0  0
  1  2  1  0  0  0  0
  2  3  1  0  0  0  0
  3  4  1  0  0  0  0
  4  5  1  0  0  0  0
  4  6  2  0  0  0  0
  6  7  1  0  0  0  0
  7  8  1  0  0  0  0
  7  9  1  0  0  0  0
  9 10  1  0  0  0  0
  9 11  1  0  0  0  0
  9 12  1  0  0  0  0
  7 13  1  0  0  0  0
 13 14  1  0  0  0  0
 13 15  1  0  0  0  0
 13 16  1  0  0  0  0
  6 17  1  0  0  0  0
 17 18  1  0  0  0  0
 17 19  2  0  0  0  0
 19 20  1  0  0  0  0
 20 21  1  0  0  0  0
 20 22  1  0  0  0  0
 20 23  1  0  0  0  0
 19 24  1  0  0  0  0
 24  3  2  0  0  0  0
 24 25  1  0  0  0  0
  1 26  2  0  0  0  0
  1 27  1  0  0  0  0
 27 28  1  0  0  0  0
 27 29  1  0  0  0  0
 29 30  1  0  0  0  0
 29 31  1  0  0  0  0
 29 32  1  0  0  0  0
M  END
> <ChemID>
102156

> <source_casrn>
2631-37-0

> <CAS>
2631-37-0

> <SMILES>
Cc1cc(cc(c1)OC(=O)NC)C(C)C

> <NAME>
3-I-PR-5-MEPHENYL-N-ME CARBAMATE

> <preferred_name>
Promecarb

> <iupac>
3-methyl-5-(propan-2-yl)phenyl methylcarbamate

> <MPID>
26710

> <dsstox_substance_id>
DTXSID4037617

> <Canonical_QSARr>
Cc1cc(cc(c1)OC(=O)NC)C(C)C

> <InChI_Code_QSARr>
InChI=1S/C12H17NO2/c1-8(2)10-5-9(3)6-11(7-10)15-12(14)13-4/h5-8H,1-4H3,(H,13,14)

> <InChI Key_QSARr>
DTAPQAJKAFRNJB-UHFFFAOYSA-N

> <Salt_Solvent>
?

> <LogVP>
-4.5229

$$$$
102160
  -INDIGO-08031723152D

 26 26  0  0  0  0  0  0  0  0999 V2000
    1.3856    0.8000    0.0000 C   0  0  0  0  0  0  0  0  0  0  0  0
    2.7713    1.6001    0.0000 H   0  0  0  0  0  0  0  0  0  0  0  0
    1.3856    2.4000    0.0000 H   0  0  0  0  0  0  0  0  0  0  0  0
    2.7713    0.0001    0.0000 H   0  0  0  0  0  0  0  0  0  0  0  0
    0.0001    0.0001    0.0000 C   0  0  0  0  0  0  0  0  0  0  0  0
    0.0001   -1.6001    0.0000 C   0  0  0  0  0  0  0  0  0  0  0  0
    1.3856   -2.4000    0.0000 H   0  0  0  0  0  0  0  0  0  0  0  0
   -1.3856   -2.4000    0.0000 C   0  0  0  0  0  0  0  0  0  0  0  0
   -1.3856   -4.0000    0.0000 C   0  0  0  0  0  0  0  0  0  0  0  0
   -1.3856   -5.6000    0.0000 H   0  0  0  0  0  0  0  0  0  0  0  0
   -2.7713   -4.8001    0.0000 H   0  0  0  0  0  0  0  0  0  0  0  0
    0.0001   -4.8001    0.0000 H   0  0  0  0  0  0  0  0  0  0  0  0
   -2.7713   -1.5999    0.0000 C   0  0  0  0  0  0  0  0  0  0  0  0
   -4.1569   -2.4000    0.0000 H   0  0  0  0  0  0  0  0  0  0  0  0
   -2.7713    0.0001    0.0000 C   0  0  0  0  0  0  0  0  0  0  0  0
   -4.1569    0.8000    0.0000 O   0  0  0  0  0  0  0  0  0  0  0  0
   -5.5426    0.0001    0.0000 C   0  0  0  0  0  0  0  0  0  0  0  0
   -6.9283    0.8000    0.0000 N   0  0  0  0  0  0  0  0  0  0  0  0
   -6.9283    2.4000    0.0000 H   0  0  0  0  0  0  0  0  0  0  0  0
   -8.3138    0.0001    0.0000 C   0  0  0  0  0  0  0  0  0  0  0  0
   -9.6995   -0.8000    0.0000 H   0  0  0  0  0  0  0  0  0  0  0  0
   -9.6995    0.8000    0.0000 H   0  0  0  0  0  0  0  0  0  0  0  0
   -8.3138   -1.5999    0.0000 H   0  0  0  0  0  0  0  0  0  0  0  0
   -5.5426   -1.5999    0.0000 O   0  0  0  0  0  0  0  0  0  0  0  0
   -1.3856    0.8000    0.0000 C   0  0  0  0  0  0  0  0  0  0  0  0
   -1.3856    2.4000    0.0000 H   0  0  0  0  0  0  0  0  0  0  0  0
  1  2  1  0  0  0  0
  1  3  1  0  0  0  0
  1  4  1  0  0  0  0
  1  5  1  0  0  0  0
  5  6  1  0  0  0  0
  6  7  1  0  0  0  0
  6  8  2  0  0  0  0
  8  9  1  0  0  0  0
  9 10  1  0  0  0  0
  9 11  1  0  0  0  0
  9 12  1  0  0  0  0
  8 13  1  0  0  0  0
 13 14  1  0  0  0  0
 13 15  2  0  0  0  0
 15 16  1  0  0  0  0
 16 17  1  0  0  0  0
 17 18  1  0  0  0  0
 18 19  1  0  0  0  0
 18 20  1  0  0  0  0
 20 21  1  0  0  0  0
 20 22  1  0  0  0  0
 20 23  1  0  0  0  0
 17 24  2  0  0  0  0
 15 25  1  0  0  0  0
 25  5  2  0  0  0  0
 25 26  1  0  0  0  0
M  END
> <ChemID>
102160

> <source_casrn>
2655-14-3

> <CAS>
2655-14-3

> <SMILES>
CNC(=O)Oc1cc(C)cc(C)c1

> <NAME>
N-ME-3,5-DIMETHYLPHENYL CARBAMATE

> <preferred_name>
XMC

> <iupac>
3,5-dimethylphenyl methylcarbamate

> <MPID>
26714

> <dsstox_substance_id>
DTXSID7058042

> <Canonical_QSARr>
CNC(=O)Oc1cc(C)cc(C)c1

> <InChI_Code_QSARr>
InChI=1S/C10H13NO2/c1-7-4-8(2)6-9(5-7)13-10(12)11-3/h4-6H,1-3H3,(H,11,12)

> <InChI Key_QSARr>
CVQODEWAPZVVBU-UHFFFAOYSA-N

> <Salt_Solvent>
?

> <LogVP>
-3.4437

$$$$
102164
  -INDIGO-08031723152D

 29 29  0  0  0  0  0  0  0  0999 V2000
   -5.5426    1.6001    0.0000 C   0  0  0  0  0  0  0  0  0  0  0  0
   -5.5426    0.0001    0.0000 O   0  0  0  0  0  0  0  0  0  0  0  0
   -4.1569    2.4000    0.0000 O   0  0  0  0  0  0  0  0  0  0  0  0
   -2.7713    1.5999    0.0000 C   0  0  0  0  0  0  0  0  0  0  0  0
   -2.7713   -0.0001    0.0000 C   0  0  0  0  0  0  0  0  0  0  0  0
   -4.1569   -0.8000    0.0000 H   0  0  0  0  0  0  0  0  0  0  0  0
   -1.3856   -0.8000    0.0000 C   0  0  0  0  0  0  0  0  0  0  0  0
   -1.3856   -2.4000    0.0000 C   0  0  0  0  0  0  0  0  0  0  0  0
   -1.3856   -4.0000    0.0000 H   0  0  0  0  0  0  0  0  0  0  0  0
   -2.7713   -3.2001    0.0000 H   0  0  0  0  0  0  0  0  0  0  0  0
    0.0001   -3.2001    0.0000 H   0  0  0  0  0  0  0  0  0  0  0  0
    0.0001   -0.0001    0.0000 C   0  0  0  0  0  0  0  0  0  0  0  0
    1.3856   -0.8000    0.0000 C   0  0  0  0  0  0  0  0  0  0  0  0
    2.7713   -1.5999    0.0000 H   0  0  0  0  0  0  0  0  0  0  0  0
    2.7713    0.0001    0.0000 H   0  0  0  0  0  0  0  0  0  0  0  0
    1.3856   -2.4000    0.0000 H   0  0  0  0  0  0  0  0  0  0  0  0
    0.0001    1.5999    0.0000 C   0  0  0  0  0  0  0  0  0  0  0  0
    1.3856    2.4000    0.0000 C   0  0  0  0  0  0  0  0  0  0  0  0
    2.7713    3.2001    0.0000 H   0  0  0  0  0  0  0  0  0  0  0  0
    1.3856    4.0000    0.0000 H   0  0  0  0  0  0  0  0  0  0  0  0
    2.7713    1.6001    0.0000 H   0  0  0  0  0  0  0  0  0  0  0  0
   -1.3856    2.4000    0.0000 C   0  0  0  0  0  0  0  0  0  0  0  0
   -1.3856    4.0000    0.0000 H   0  0  0  0  0  0  0  0  0  0  0  0
   -6.9283    2.4000    0.0000 N   0  0  0  0  0  0  0  0  0  0  0  0
   -6.9283    4.0000    0.0000 H   0  0  0  0  0  0  0  0  0  0  0  0
   -8.3138    1.6001    0.0000 C   0  0  0  0  0  0  0  0  0  0  0  0
   -9.6995    0.8000    0.0000 H   0  0  0  0  0  0  0  0  0  0  0  0
   -9.6995    2.4000    0.0000 H   0  0  0  0  0  0  0  0  0  0  0  0
   -8.3138    0.0001    0.0000 H   0  0  0  0  0  0  0  0  0  0  0  0
  1  2  2  0  0  0  0
  1  3  1  0  0  0  0
  3  4  1  0  0  0  0
  4  5  1  0  0  0  0
  5  6  1  0  0  0  0
  5  7  2  0  0  0  0
  7  8  1  0  0  0  0
  8  9  1  0  0  0  0
  8 10  1  0  0  0  0
  8 11  1  0  0  0  0
  7 12  1  0  0  0  0
 12 13  1  0  0  0  0
 13 14  1  0  0  0  0
 13 15  1  0  0  0  0
 13 16  1  0  0  0  0
 12 17  2  0  0  0  0
 17 18  1  0  0  0  0
 18 19  1  0  0  0  0
 18 20  1  0  0  0  0
 18 21  1  0  0  0  0
 17 22  1  0  0  0  0
 22  4  2  0  0  0  0
 22 23  1  0  0  0  0
  1 24  1  0  0  0  0
 24 25  1  0  0  0  0
 24 26  1  0  0  0  0
 26 27  1  0  0  0  0
 26 28  1  0  0  0  0
 26 29  1  0  0  0  0
M  END
> <ChemID>
102164

> <source_casrn>
2686-99-9

> <CAS>
2686-99-9

> <SMILES>
CNC(=O)Oc1cc(C)c(C)c(C)c1

> <NAME>
N-ME-3,4,5-TRIMEPHENYL CARBAMATE

> <preferred_name>
3,4,5-Trimethylphenyl methylcarbamate

> <iupac>
3,4,5-trimethylphenyl methylcarbamate

> <MPID>
26718

> <dsstox_substance_id>
DTXSID1040322

> <Canonical_QSARr>
CNC(=O)Oc1cc(C)c(C)c(C)c1

> <InChI_Code_QSARr>
InChI=1S/C11H15NO2/c1-7-5-10(14-11(13)12-4)6-8(2)9(7)3/h5-6H,1-4H3,(H,12,13)

> <InChI Key_QSARr>
AUQAUAIUNJIIEP-UHFFFAOYSA-N

> <Salt_Solvent>
?

> <LogVP>
-4.2924

$$$$
102168
  -INDIGO-08031723152D

 18 18  0  0  0  0  0  0  0  0999 V2000
   -0.0000    2.7713    0.0000 Cl  0  0  0  0  0  0  0  0  0  0  0  0
    0.8000    1.3856    0.0000 C   0  0  0  0  0  0  0  0  0  0  0  0
    2.4001    1.3856    0.0000 C   0  0  0  0  0  0  0  0  0  0  0  0
    3.2000    2.7713    0.0000 H   0  0  0  0  0  0  0  0  0  0  0  0
    3.2000    0.0000    0.0000 C   0  0  0  0  0  0  0  0  0  0  0  0
    4.8000    0.0000    0.0000 H   0  0  0  0  0  0  0  0  0  0  0  0
    2.4001   -1.3856    0.0000 C   0  0  0  0  0  0  0  0  0  0  0  0
    3.2000   -2.7713    0.0000 H   0  0  0  0  0  0  0  0  0  0  0  0
    0.8000   -1.3856    0.0000 C   0  0  0  0  0  0  0  0  0  0  0  0
   -0.0000   -2.7713    0.0000 H   0  0  0  0  0  0  0  0  0  0  0  0
   -0.0000    0.0000    0.0000 C   0  0  0  0  0  0  0  0  0  0  0  0
   -1.6000    0.0000    0.0000 C   0  0  0  0  0  0  0  0  0  0  0  0
   -2.3999    1.3856    0.0000 H   0  0  0  0  0  0  0  0  0  0  0  0
   -2.3999   -1.3856    0.0000 C   0  0  0  0  0  0  0  0  0  0  0  0
   -4.0000   -1.3856    0.0000 C   0  0  0  0  0  0  0  0  0  0  0  0
   -5.6000   -1.3856    0.0000 N   0  0  0  0  0  0  0  0  0  0  0  0
   -1.6000   -2.7713    0.0000 C   0  0  0  0  0  0  0  0  0  0  0  0
   -0.8000   -4.1569    0.0000 N   0  0  0  0  0  0  0  0  0  0  0  0
  1  2  1  0  0  0  0
  2  3  1  0  0  0  0
  3  4  1  0  0  0  0
  3  5  2  0  0  0  0
  5  6  1  0  0  0  0
  5  7  1  0  0  0  0
  7  8  1  0  0  0  0
  7  9  2  0  0  0  0
  9 10  1  0  0  0  0
  9 11  1  0  0  0  0
 11  2  2  0  0  0  0
 11 12  1  0  0  0  0
 12 13  1  0  0  0  0
 12 14  2  0  0  0  0
 14 15  1  0  0  0  0
 15 16  3  0  0  0  0
 14 17  1  0  0  0  0
 17 18  3  0  0  0  0
M  END
> <ChemID>
102168

> <source_casrn>
2698-41-1

> <CAS>
2698-41-1

> <SMILES>
N#CC(=Cc1ccccc1Cl)C#N

> <NAME>
o-Chlorobenzylidenemalononitrile

> <preferred_name>
(2-Chlorobenzylidene)propanedinitrile

> <iupac>
(2-chlorobenzylidene)propanedinitrile

> <MPID>
26722

> <dsstox_substance_id>
DTXSID9020297

> <Canonical_QSARr>
N#CC(=Cc1ccccc1Cl)C#N

> <InChI_Code_QSARr>
InChI=1S/C10H5ClN2/c11-10-4-2-1-3-9(10)5-8(6-12)7-13/h1-5H

> <InChI Key_QSARr>
JJNZXLAFIPKXIG-UHFFFAOYSA-N

> <Salt_Solvent>
?

> <LogVP>
-4.4685

$$$$
102173
  -INDIGO-08031723152D

 34 34  0  0  0  0  0  0  0  0999 V2000
   -1.3856   -0.8000    0.0000 C   0  0  0  0  0  0  0  0  0  0  0  0
   -1.3856   -2.4000    0.0000 C   0  0  0  0  0  0  0  0  0  0  0  0
   -0.0000   -3.2000    0.0000 H   0  0  0  0  0  0  0  0  0  0  0  0
   -2.7712   -3.2000    0.0000 C   0  0  0  0  0  0  0  0  0  0  0  0
   -2.7712   -4.8000    0.0000 H   0  0  0  0  0  0  0  0  0  0  0  0
   -4.1570   -2.4000    0.0000 C   0  0  0  0  0  0  0  0  0  0  0  0
   -5.5425   -3.2000    0.0000 H   0  0  0  0  0  0  0  0  0  0  0  0
   -4.1570   -0.8000    0.0000 C   0  0  0  0  0  0  0  0  0  0  0  0
   -5.5425   -0.0000    0.0000 C   0  0  0  0  0  0  0  0  0  0  0  0
   -6.9281    0.7999    0.0000 C   0  0  0  0  0  0  0  0  0  0  0  0
   -8.3139    1.6000    0.0000 H   0  0  0  0  0  0  0  0  0  0  0  0
   -8.4317    0.2528    0.0000 H   0  0  0  0  0  0  0  0  0  0  0  0
   -6.9281    2.4000    0.0000 H   0  0  0  0  0  0  0  0  0  0  0  0
   -4.7426    1.3856    0.0000 N   0  0  0  0  0  0  0  0  0  0  0  0
   -5.5425    2.7713    0.0000 C   0  0  0  0  0  0  0  0  0  0  0  0
   -6.3425    4.1569    0.0000 O   0  0  0  0  0  0  0  0  0  0  0  0
   -6.3425   -1.3856    0.0000 C   0  0  0  0  0  0  0  0  0  0  0  0
   -6.8898   -2.8892    0.0000 H   0  0  0  0  0  0  0  0  0  0  0  0
   -7.9183   -1.6635    0.0000 H   0  0  0  0  0  0  0  0  0  0  0  0
   -7.3711   -0.1599    0.0000 H   0  0  0  0  0  0  0  0  0  0  0  0
   -2.7712   -0.0000    0.0000 C   0  0  0  0  0  0  0  0  0  0  0  0
   -2.7712    1.6000    0.0000 H   0  0  0  0  0  0  0  0  0  0  0  0
   -0.0000   -0.0000    0.0000 C   0  0  0  0  0  0  0  0  0  0  0  0
    1.3856    0.7999    0.0000 C   0  0  0  0  0  0  0  0  0  0  0  0
    2.7713    1.6000    0.0000 H   0  0  0  0  0  0  0  0  0  0  0  0
    2.8891    0.2528    0.0000 H   0  0  0  0  0  0  0  0  0  0  0  0
    1.3856    2.4000    0.0000 H   0  0  0  0  0  0  0  0  0  0  0  0
   -0.8000    1.3856    0.0000 N   0  0  0  0  0  0  0  0  0  0  0  0
   -0.0000    2.7713    0.0000 C   0  0  0  0  0  0  0  0  0  0  0  0
    0.8000    4.1569    0.0000 O   0  0  0  0  0  0  0  0  0  0  0  0
    0.8000   -1.3856    0.0000 C   0  0  0  0  0  0  0  0  0  0  0  0
    1.3472   -2.8892    0.0000 H   0  0  0  0  0  0  0  0  0  0  0  0
    2.3757   -1.6635    0.0000 H   0  0  0  0  0  0  0  0  0  0  0  0
    1.8285   -0.1599    0.0000 H   0  0  0  0  0  0  0  0  0  0  0  0
  1  2  1  0  0  0  0
  2  3  1  0  0  0  0
  2  4  2  0  0  0  0
  4  5  1  0  0  0  0
  4  6  1  0  0  0  0
  6  7  1  0  0  0  0
  6  8  2  0  0  0  0
  8  9  1  0  0  0  0
  9 10  1  0  0  0  0
 10 11  1  0  0  0  0
 10 12  1  0  0  0  0
 10 13  1  0  0  0  0
  9 14  1  0  0  0  0
 14 15  2  0  0  0  0
 15 16  2  0  0  0  0
  9 17  1  0  0  0  0
 17 18  1  0  0  0  0
 17 19  1  0  0  0  0
 17 20  1  0  0  0  0
  8 21  1  0  0  0  0
 21  1  2  0  0  0  0
 21 22  1  0  0  0  0
  1 23  1  0  0  0  0
 23 24  1  0  0  0  0
 24 25  1  0  0  0  0
 24 26  1  0  0  0  0
 24 27  1  0  0  0  0
 23 28  1  0  0  0  0
 28 29  2  0  0  0  0
 29 30  2  0  0  0  0
 23 31  1  0  0  0  0
 31 32  1  0  0  0  0
 31 33  1  0  0  0  0
 31 34  1  0  0  0  0
M  END
> <ChemID>
102173

> <source_casrn>
2778-42-9

> <CAS>
2778-42-9

> <SMILES>
CC(C)(N=C=O)c1cc(ccc1)C(C)(C)N=C=O

> <NAME>
1,3-BIS(1-ISOCYANATO-1-METHYLETHYL)BENZENE

> <preferred_name>
1,3-Bis(2-isocyanatopropan-2-yl)benzene

> <iupac>
1,3-bis(2-isocyanatopropan-2-yl)benzene

> <MPID>
26726

> <dsstox_substance_id>
DTXSID4027498

> <Canonical_QSARr>
CC(C)(N=C=O)c1cc(ccc1)C(C)(C)N=C=O

> <InChI_Code_QSARr>
InChI=1S/C14H16N2O2/c1-13(2,15-9-17)11-6-5-7-12(8-11)14(3,4)16-10-18/h5-8H,1-4H3

> <InChI Key_QSARr>
AZYRZNIYJDKRHO-UHFFFAOYSA-N

> <Salt_Solvent>
?

> <LogVP>
-2.4949

$$$$
102177
  -INDIGO-08031723152D

 34 34  0  0  0  0  0  0  0  0999 V2000
   -1.3857    2.4000    0.0000 C   0  0  0  0  0  0  0  0  0  0  0  0
   -1.3857    0.8000    0.0000 C   0  0  0  0  0  0  0  0  0  0  0  0
   -0.0001    0.0001    0.0000 C   0  0  0  0  0  0  0  0  0  0  0  0
    0.8000    1.3857    0.0000 H   0  0  0  0  0  0  0  0  0  0  0  0
    1.3857   -0.8000    0.0000 C   0  0  0  0  0  0  0  0  0  0  0  0
    1.0393   -2.3621    0.0000 H   0  0  0  0  0  0  0  0  0  0  0  0
    1.9980   -2.2782    0.0000 H   0  0  0  0  0  0  0  0  0  0  0  0
    2.7713    0.0001    0.0000 C   0  0  0  0  0  0  0  0  0  0  0  0
    4.1569    0.8000    0.0000 H   0  0  0  0  0  0  0  0  0  0  0  0
    4.1569   -0.8000    0.0000 H   0  0  0  0  0  0  0  0  0  0  0  0
    2.7713    1.6001    0.0000 H   0  0  0  0  0  0  0  0  0  0  0  0
   -1.0285   -1.2256    0.0000 C   0  0  0  0  0  0  0  0  0  0  0  0
   -0.4812   -2.7292    0.0000 H   0  0  0  0  0  0  0  0  0  0  0  0
   -2.0570   -2.4513    0.0000 H   0  0  0  0  0  0  0  0  0  0  0  0
    0.5473   -1.5035    0.0000 H   0  0  0  0  0  0  0  0  0  0  0  0
   -2.7712    0.0001    0.0000 C   0  0  0  0  0  0  0  0  0  0  0  0
   -2.7712   -1.5999    0.0000 H   0  0  0  0  0  0  0  0  0  0  0  0
   -4.1568    0.8000    0.0000 C   0  0  0  0  0  0  0  0  0  0  0  0
   -5.5426    0.0001    0.0000 N   0  0  0  0  0  0  0  0  0  0  0  0
   -6.9282    0.8000    0.0000 O   0  0  0  0  0  0  0  0  0  0  0  0
   -5.5426   -1.5999    0.0000 O   0  0  0  0  0  0  0  0  0  0  0  0
   -4.1568    2.4000    0.0000 C   0  0  0  0  0  0  0  0  0  0  0  0
   -5.5426    3.2001    0.0000 H   0  0  0  0  0  0  0  0  0  0  0  0
   -2.7712    3.2001    0.0000 C   0  0  0  0  0  0  0  0  0  0  0  0
   -2.7712    4.8001    0.0000 N   0  0  0  0  0  0  0  0  0  0  0  0
   -4.1568    5.6000    0.0000 O   0  0  0  0  0  0  0  0  0  0  0  0
   -1.3857    5.6000    0.0000 O   0  0  0  0  0  0  0  0  0  0  0  0
   -0.0001    3.2001    0.0000 O   0  0  0  0  0  0  0  0  0  0  0  0
    1.5036    2.6528    0.0000 C   0  0  0  0  0  0  0  0  0  0  0  0
    1.7813    1.0771    0.0000 O   0  0  0  0  0  0  0  0  0  0  0  0
    2.7292    3.6812    0.0000 C   0  0  0  0  0  0  0  0  0  0  0  0
    3.9549    4.7097    0.0000 H   0  0  0  0  0  0  0  0  0  0  0  0
    4.2327    3.1340    0.0000 H   0  0  0  0  0  0  0  0  0  0  0  0
    2.4513    5.2570    0.0000 H   0  0  0  0  0  0  0  0  0  0  0  0
  1  2  1  0  0  0  0
  2  3  1  0  0  0  0
  3  4  1  0  0  0  0
  3  5  1  0  0  0  0
  5  6  1  0  0  0  0
  5  7  1  0  0  0  0
  5  8  1  0  0  0  0
  8  9  1  0  0  0  0
  8 10  1  0  0  0  0
  8 11  1  0  0  0  0
  3 12  1  0  0  0  0
 12 13  1  0  0  0  0
 12 14  1  0  0  0  0
 12 15  1  0  0  0  0
  2 16  2  0  0  0  0
 16 17  1  0  0  0  0
 16 18  1  0  0  0  0
 18 19  1  0  0  0  0
 19 20  2  0  0  0  0
 19 21  1  0  0  0  0
 18 22  2  0  0  0  0
 22 23  1  0  0  0  0
 22 24  1  0  0  0  0
 24  1  2  0  0  0  0
 24 25  1  0  0  0  0
 25 26  2  0  0  0  0
 25 27  1  0  0  0  0
  1 28  1  0  0  0  0
 28 29  1  0  0  0  0
 29 30  2  0  0  0  0
 29 31  1  0  0  0  0
 31 32  1  0  0  0  0
 31 33  1  0  0  0  0
 31 34  1  0  0  0  0
M  CHG  4  19   1  21  -1  25   1  27  -1
M  END
> <ChemID>
102177

> <source_casrn>
2813-95-8

> <CAS>
2813-95-8

> <SMILES>
CC(=O)Oc1c(cc(cc1C(C)CC)[N+]([O-])=O)[N+]([O-])=O

> <NAME>
DINOSEB ACETATE

> <preferred_name>
Dinoseb acetate

> <iupac>
(2-butan-2-yl-4,6-dinitrophenyl) acetate

> <MPID>
26730

> <dsstox_substance_id>
DTXSID3074816

> <Canonical_QSARr>
CC(=O)Oc1c(cc(cc1C(C)CC)[N+]([O-])=O)[N+]([O-])=O

> <InChI_Code_QSARr>
InChI=1S/C12H14N2O6/c1-4-7(2)10-5-9(13(16)17)6-11(14(18)19)12(10)20-8(3)15/h5-7H,4H2,1-3H3

> <InChI Key_QSARr>
RDJTWDKSYLLHRW-UHFFFAOYSA-N

> <Salt_Solvent>
?

> <LogVP>
-3.2218

$$$$
102181
  -INDIGO-08031723152D

 24 24  0  0  0  0  0  0  0  0999 V2000
   -0.0001   -0.0000    0.0000 C   0  0  0  0  0  0  0  0  0  0  0  0
    0.8000   -1.3857    0.0000 C   0  0  0  0  0  0  0  0  0  0  0  0
    2.4000   -1.3857    0.0000 C   0  0  0  0  0  0  0  0  0  0  0  0
    4.0000   -1.3857    0.0000 H   0  0  0  0  0  0  0  0  0  0  0  0
    3.2001   -2.7713    0.0000 H   0  0  0  0  0  0  0  0  0  0  0  0
    3.2001   -0.0000    0.0000 H   0  0  0  0  0  0  0  0  0  0  0  0
   -0.0001   -2.7713    0.0000 C   0  0  0  0  0  0  0  0  0  0  0  0
    0.8000   -4.1569    0.0000 H   0  0  0  0  0  0  0  0  0  0  0  0
   -1.6001   -2.7713    0.0000 C   0  0  0  0  0  0  0  0  0  0  0  0
   -2.4000   -4.1569    0.0000 H   0  0  0  0  0  0  0  0  0  0  0  0
   -2.4000   -1.3857    0.0000 C   0  0  0  0  0  0  0  0  0  0  0  0
   -4.0000   -1.3857    0.0000 H   0  0  0  0  0  0  0  0  0  0  0  0
   -1.6001   -0.0000    0.0000 C   0  0  0  0  0  0  0  0  0  0  0  0
   -2.4000    1.3856    0.0000 C   0  0  0  0  0  0  0  0  0  0  0  0
   -3.1999    2.7713    0.0000 H   0  0  0  0  0  0  0  0  0  0  0  0
   -4.0000    1.3856    0.0000 H   0  0  0  0  0  0  0  0  0  0  0  0
   -1.5999    2.7713    0.0000 H   0  0  0  0  0  0  0  0  0  0  0  0
    0.8000    1.3856    0.0000 C   0  0  0  0  0  0  0  0  0  0  0  0
    0.5911    2.9720    0.0000 H   0  0  0  0  0  0  0  0  0  0  0  0
   -0.4693    2.3596    0.0000 H   0  0  0  0  0  0  0  0  0  0  0  0
    2.4000    1.3856    0.0000 C   0  0  0  0  0  0  0  0  0  0  0  0
    3.1999    2.7713    0.0000 H   0  0  0  0  0  0  0  0  0  0  0  0
    4.0000    1.3856    0.0000 H   0  0  0  0  0  0  0  0  0  0  0  0
    1.5999    2.7713    0.0000 H   0  0  0  0  0  0  0  0  0  0  0  0
  1  2  1  0  0  0  0
  2  3  1  0  0  0  0
  3  4  1  0  0  0  0
  3  5  1  0  0  0  0
  3  6  1  0  0  0  0
  2  7  2  0  0  0  0
  7  8  1  0  0  0  0
  7  9  1  0  0  0  0
  9 10  1  0  0  0  0
  9 11  2  0  0  0  0
 11 12  1  0  0  0  0
 11 13  1  0  0  0  0
 13  1  2  0  0  0  0
 13 14  1  0  0  0  0
 14 15  1  0  0  0  0
 14 16  1  0  0  0  0
 14 17  1  0  0  0  0
  1 18  1  0  0  0  0
 18 19  1  0  0  0  0
 18 20  1  0  0  0  0
 18 21  1  0  0  0  0
 21 22  1  0  0  0  0
 21 23  1  0  0  0  0
 21 24  1  0  0  0  0
M  END
> <ChemID>
102181

> <source_casrn>
2870-04-4

> <CAS>
2870-04-4

> <SMILES>
CCc1c(C)cccc1C

> <NAME>
1,3-DIMETHYL-2-ETHYLBENZENE

> <preferred_name>
2-Ethyl-m-xylene

> <iupac>
2-ethyl-1,3-dimethylbenzene

> <MPID>
26734

> <dsstox_substance_id>
DTXSID1062675

> <Canonical_QSARr>
CCc1c(C)cccc1C

> <InChI_Code_QSARr>
InChI=1S/C10H14/c1-4-10-8(2)6-5-7-9(10)3/h5-7H,4H2,1-3H3

> <InChI Key_QSARr>
CHIKRULMSSADAF-UHFFFAOYSA-N

> <Salt_Solvent>
?

> <LogVP>
-0.1316

$$$$
102185
  -INDIGO-08031723152D

 57 56  0  0  0  0  0  0  0  0999 V2000
   -0.0002    0.0000    0.0000 C   0  0  0  0  0  0  0  0  0  0  0  0
    0.6121    1.4782    0.0000 H   0  0  0  0  0  0  0  0  0  0  0  0
   -0.6121    1.4782    0.0000 H   0  0  0  0  0  0  0  0  0  0  0  0
    1.3855   -0.8000    0.0000 C   0  0  0  0  0  0  0  0  0  0  0  0
    0.7732   -2.2782    0.0000 H   0  0  0  0  0  0  0  0  0  0  0  0
    1.9979   -2.2782    0.0000 H   0  0  0  0  0  0  0  0  0  0  0  0
    2.7713    0.0000    0.0000 C   0  0  0  0  0  0  0  0  0  0  0  0
    3.3836    1.4782    0.0000 H   0  0  0  0  0  0  0  0  0  0  0  0
    2.1590    1.4782    0.0000 H   0  0  0  0  0  0  0  0  0  0  0  0
    4.1570   -0.8000    0.0000 C   0  0  0  0  0  0  0  0  0  0  0  0
    3.5447   -2.2782    0.0000 H   0  0  0  0  0  0  0  0  0  0  0  0
    4.7693   -2.2782    0.0000 H   0  0  0  0  0  0  0  0  0  0  0  0
    5.5428    0.0000    0.0000 C   0  0  0  0  0  0  0  0  0  0  0  0
    6.1547    1.4782    0.0000 H   0  0  0  0  0  0  0  0  0  0  0  0
    4.9305    1.4782    0.0000 H   0  0  0  0  0  0  0  0  0  0  0  0
    6.9281   -0.8000    0.0000 C   0  0  0  0  0  0  0  0  0  0  0  0
    6.3158   -2.2782    0.0000 H   0  0  0  0  0  0  0  0  0  0  0  0
    7.5404   -2.2782    0.0000 H   0  0  0  0  0  0  0  0  0  0  0  0
    8.3138    0.0000    0.0000 C   0  0  0  0  0  0  0  0  0  0  0  0
    8.9262    1.4782    0.0000 H   0  0  0  0  0  0  0  0  0  0  0  0
    7.7015    1.4782    0.0000 H   0  0  0  0  0  0  0  0  0  0  0  0
    9.6996   -0.8000    0.0000 C   0  0  0  0  0  0  0  0  0  0  0  0
    9.0873   -2.2782    0.0000 H   0  0  0  0  0  0  0  0  0  0  0  0
   10.3119   -2.2782    0.0000 H   0  0  0  0  0  0  0  0  0  0  0  0
   11.0853    0.0000    0.0000 C   0  0  0  0  0  0  0  0  0  0  0  0
   11.6972    1.4782    0.0000 H   0  0  0  0  0  0  0  0  0  0  0  0
   10.4730    1.4782    0.0000 H   0  0  0  0  0  0  0  0  0  0  0  0
   12.4707   -0.8000    0.0000 C   0  0  0  0  0  0  0  0  0  0  0  0
   13.8564   -1.6000    0.0000 H   0  0  0  0  0  0  0  0  0  0  0  0
   13.8564    0.0000    0.0000 H   0  0  0  0  0  0  0  0  0  0  0  0
   12.4707   -2.4000    0.0000 H   0  0  0  0  0  0  0  0  0  0  0  0
   -1.3855   -0.8000    0.0000 C   0  0  0  0  0  0  0  0  0  0  0  0
   -1.9979   -2.2782    0.0000 H   0  0  0  0  0  0  0  0  0  0  0  0
   -0.7732   -2.2782    0.0000 H   0  0  0  0  0  0  0  0  0  0  0  0
   -2.7713    0.0000    0.0000 C   0  0  0  0  0  0  0  0  0  0  0  0
   -2.1590    1.4782    0.0000 H   0  0  0  0  0  0  0  0  0  0  0  0
   -3.3836    1.4782    0.0000 H   0  0  0  0  0  0  0  0  0  0  0  0
   -4.1570   -0.8000    0.0000 C   0  0  0  0  0  0  0  0  0  0  0  0
   -4.7693   -2.2782    0.0000 H   0  0  0  0  0  0  0  0  0  0  0  0
   -3.5447   -2.2782    0.0000 H   0  0  0  0  0  0  0  0  0  0  0  0
   -5.5428    0.0000    0.0000 C   0  0  0  0  0  0  0  0  0  0  0  0
   -4.9305    1.4782    0.0000 H   0  0  0  0  0  0  0  0  0  0  0  0
   -6.1547    1.4782    0.0000 H   0  0  0  0  0  0  0  0  0  0  0  0
   -6.9281   -0.8000    0.0000 C   0  0  0  0  0  0  0  0  0  0  0  0
   -7.5404   -2.2782    0.0000 H   0  0  0  0  0  0  0  0  0  0  0  0
   -6.3158   -2.2782    0.0000 H   0  0  0  0  0  0  0  0  0  0  0  0
   -8.3138    0.0000    0.0000 C   0  0  0  0  0  0  0  0  0  0  0  0
   -7.7015    1.4782    0.0000 H   0  0  0  0  0  0  0  0  0  0  0  0
   -8.9262    1.4782    0.0000 H   0  0  0  0  0  0  0  0  0  0  0  0
   -9.6996   -0.8000    0.0000 C   0  0  0  0  0  0  0  0  0  0  0  0
  -10.3119   -2.2782    0.0000 H   0  0  0  0  0  0  0  0  0  0  0  0
   -9.0873   -2.2782    0.0000 H   0  0  0  0  0  0  0  0  0  0  0  0
  -11.0853    0.0000    0.0000 C   0  0  0  0  0  0  0  0  0  0  0  0
  -10.4730    1.4782    0.0000 H   0  0  0  0  0  0  0  0  0  0  0  0
  -11.6972    1.4782    0.0000 H   0  0  0  0  0  0  0  0  0  0  0  0
  -12.4707   -0.8000    0.0000 S   0  0  0  0  0  0  0  0  0  0  0  0
  -13.8564    0.0000    0.0000 H   0  0  0  0  0  0  0  0  0  0  0  0
  1  2  1  0  0  0  0
  1  3  1  0  0  0  0
  1  4  1  0  0  0  0
  4  5  1  0  0  0  0
  4  6  1  0  0  0  0
  4  7  1  0  0  0  0
  7  8  1  0  0  0  0
  7  9  1  0  0  0  0
  7 10  1  0  0  0  0
 10 11  1  0  0  0  0
 10 12  1  0  0  0  0
 10 13  1  0  0  0  0
 13 14  1  0  0  0  0
 13 15  1  0  0  0  0
 13 16  1  0  0  0  0
 16 17  1  0  0  0  0
 16 18  1  0  0  0  0
 16 19  1  0  0  0  0
 19 20  1  0  0  0  0
 19 21  1  0  0  0  0
 19 22  1  0  0  0  0
 22 23  1  0  0  0  0
 22 24  1  0  0  0  0
 22 25  1  0  0  0  0
 25 26  1  0  0  0  0
 25 27  1  0  0  0  0
 25 28  1  0  0  0  0
 28 29  1  0  0  0  0
 28 30  1  0  0  0  0
 28 31  1  0  0  0  0
  1 32  1  0  0  0  0
 32 33  1  0  0  0  0
 32 34  1  0  0  0  0
 32 35  1  0  0  0  0
 35 36  1  0  0  0  0
 35 37  1  0  0  0  0
 35 38  1  0  0  0  0
 38 39  1  0  0  0  0
 38 40  1  0  0  0  0
 38 41  1  0  0  0  0
 41 42  1  0  0  0  0
 41 43  1  0  0  0  0
 41 44  1  0  0  0  0
 44 45  1  0  0  0  0
 44 46  1  0  0  0  0
 44 47  1  0  0  0  0
 47 48  1  0  0  0  0
 47 49  1  0  0  0  0
 47 50  1  0  0  0  0
 50 51  1  0  0  0  0
 50 52  1  0  0  0  0
 50 53  1  0  0  0  0
 53 54  1  0  0  0  0
 53 55  1  0  0  0  0
 53 56  1  0  0  0  0
 56 57  1  0  0  0  0
M  END
> <ChemID>
102185

> <source_casrn>
2885-00-9

> <CAS>
2885-00-9

> <SMILES>
CCCCCCCCCCCCCCCCCCS

> <NAME>
1-OCTADECANETHIOL

> <preferred_name>
1-Octadecanethiol

> <iupac>
octadecane-1-thiol

> <MPID>
26738

> <dsstox_substance_id>
DTXSID0062686

> <Canonical_QSARr>
CCCCCCCCCCCCCCCCCCS

> <InChI_Code_QSARr>
InChI=1S/C18H38S/c1-2-3-4-5-6-7-8-9-10-11-12-13-14-15-16-17-18-19/h19H,2-18H2,1H3

> <InChI Key_QSARr>
QJAOYSPHSNGHNC-UHFFFAOYSA-N

> <Salt_Solvent>
?

> <LogVP>
-6.3979

$$$$
102189
  -INDIGO-08031723152D

 29 29  0  0  0  0  0  0  0  0999 V2000
    0.0001   -1.6000    0.0000 S   0  0  0  0  0  0  0  0  0  0  0  0
    0.0001    0.0000    0.0000 P   0  0  0  0  0  0  0  0  0  0  0  0
    1.3856    0.8000    0.0000 O   0  0  0  0  0  0  0  0  0  0  0  0
    2.7713    0.0000    0.0000 C   0  0  0  0  0  0  0  0  0  0  0  0
    2.7713   -1.6000    0.0000 N   0  0  0  0  0  0  0  0  0  0  0  0
    4.1570   -2.4001    0.0000 C   0  0  0  0  0  0  0  0  0  0  0  0
    4.1570   -4.0000    0.0000 Cl  0  0  0  0  0  0  0  0  0  0  0  0
    5.5425   -1.6000    0.0000 C   0  0  0  0  0  0  0  0  0  0  0  0
    6.9282   -2.4001    0.0000 Cl  0  0  0  0  0  0  0  0  0  0  0  0
    5.5425    0.0000    0.0000 C   0  0  0  0  0  0  0  0  0  0  0  0
    6.9282    0.8000    0.0000 H   0  0  0  0  0  0  0  0  0  0  0  0
    4.1570    0.8000    0.0000 C   0  0  0  0  0  0  0  0  0  0  0  0
    4.1570    2.4000    0.0000 Cl  0  0  0  0  0  0  0  0  0  0  0  0
   -1.3856   -0.8000    0.0000 O   0  0  0  0  0  0  0  0  0  0  0  0
   -2.7713    0.0000    0.0000 C   0  0  0  0  0  0  0  0  0  0  0  0
   -3.3835    1.4782    0.0000 H   0  0  0  0  0  0  0  0  0  0  0  0
   -2.1590    1.4782    0.0000 H   0  0  0  0  0  0  0  0  0  0  0  0
   -4.1569   -0.8000    0.0000 C   0  0  0  0  0  0  0  0  0  0  0  0
   -5.5426   -1.6000    0.0000 H   0  0  0  0  0  0  0  0  0  0  0  0
   -5.5426    0.0000    0.0000 H   0  0  0  0  0  0  0  0  0  0  0  0
   -4.1569   -2.4001    0.0000 H   0  0  0  0  0  0  0  0  0  0  0  0
   -1.3856    0.8000    0.0000 O   0  0  0  0  0  0  0  0  0  0  0  0
   -1.3856    2.4000    0.0000 C   0  0  0  0  0  0  0  0  0  0  0  0
   -0.4115    3.6694    0.0000 H   0  0  0  0  0  0  0  0  0  0  0  0
    0.2006    2.6088    0.0000 H   0  0  0  0  0  0  0  0  0  0  0  0
   -2.7713    3.2001    0.0000 C   0  0  0  0  0  0  0  0  0  0  0  0
   -2.7713    4.8000    0.0000 H   0  0  0  0  0  0  0  0  0  0  0  0
   -4.1569    4.0000    0.0000 H   0  0  0  0  0  0  0  0  0  0  0  0
   -4.1569    2.4000    0.0000 H   0  0  0  0  0  0  0  0  0  0  0  0
  1  2  2  0  0  0  0
  2  3  1  0  0  0  0
  3  4  1  0  0  0  0
  4  5  1  0  0  0  0
  5  6  2  0  0  0  0
  6  7  1  0  0  0  0
  6  8  1  0  0  0  0
  8  9  1  0  0  0  0
  8 10  2  0  0  0  0
 10 11  1  0  0  0  0
 10 12  1  0  0  0  0
 12  4  2  0  0  0  0
 12 13  1  0  0  0  0
  2 14  1  0  0  0  0
 14 15  1  0  0  0  0
 15 16  1  0  0  0  0
 15 17  1  0  0  0  0
 15 18  1  0  0  0  0
 18 19  1  0  0  0  0
 18 20  1  0  0  0  0
 18 21  1  0  0  0  0
  2 22  1  0  0  0  0
 22 23  1  0  0  0  0
 23 24  1  0  0  0  0
 23 25  1  0  0  0  0
 23 26  1  0  0  0  0
 26 27  1  0  0  0  0
 26 28  1  0  0  0  0
 26 29  1  0  0  0  0
M  END
> <ChemID>
102189

> <source_casrn>
2921-88-2

> <CAS>
2921-88-2

> <SMILES>
CCOP(=S)(Oc1[n]c(Cl)c(Cl)cc1Cl)OCC

> <NAME>
CHLORPYRIFOS

> <preferred_name>
Chlorpyrifos

> <iupac>
O,O-diethyl O-(3,5,6-trichloropyridin-2-yl) phosphorothioate

> <MPID>
26742

> <dsstox_substance_id>
DTXSID4020458

> <Canonical_QSARr>
CCOP(=S)(Oc1[n]c(Cl)c(Cl)cc1Cl)OCC

> <InChI_Code_QSARr>
InChI=1S/C9H11Cl3NO3PS/c1-3-14-17(18,15-4-2)16-9-7(11)5-6(10)8(12)13-9/h5H,3-4H2,1-2H3

> <InChI Key_QSARr>
SBPBAQFWLVIOKP-UHFFFAOYSA-N

> <Salt_Solvent>
?

> <LogVP>
-4.6936

$$$$
102195
  -INDIGO-08031723152D

 21 22  0  0  0  0  0  0  0  0999 V2000
    1.2339   -0.7643    0.0000 C   0  0  0  0  0  0  0  0  0  0  0  0
    2.0895    0.5878    0.0000 H   0  0  0  0  0  0  0  0  0  0  0  0
    0.3280   -2.1364    0.0000 C   0  0  0  0  0  0  0  0  0  0  0  0
    1.6865   -2.9817    0.0000 H   0  0  0  0  0  0  0  0  0  0  0  0
   -0.4806   -3.5170    0.0000 H   0  0  0  0  0  0  0  0  0  0  0  0
   -1.0822   -1.3607    0.0000 C   0  0  0  0  0  0  0  0  0  0  0  0
   -1.2640   -2.9502    0.0000 H   0  0  0  0  0  0  0  0  0  0  0  0
   -2.5466   -1.7739    0.0000 C   0  0  0  0  0  0  0  0  0  0  0  0
   -2.7658   -3.3589    0.0000 H   0  0  0  0  0  0  0  0  0  0  0  0
   -3.9107   -0.9378    0.0000 H   0  0  0  0  0  0  0  0  0  0  0  0
    0.0000   -0.0000    0.0000 C   0  0  0  0  0  0  0  0  0  0  0  0
    1.1508    1.1116    0.0000 H   0  0  0  0  0  0  0  0  0  0  0  0
   -0.2722    1.5766    0.0000 C   0  0  0  0  0  0  0  0  0  0  0  0
    0.0825    3.1369    0.0000 H   0  0  0  0  0  0  0  0  0  0  0  0
   -1.1466    0.3465    0.0000 C   0  0  0  0  0  0  0  0  0  0  0  0
   -2.6797    0.8042    0.0000 H   0  0  0  0  0  0  0  0  0  0  0  0
    2.7080   -1.3863    0.0000 C   0  0  0  0  0  0  0  0  0  0  0  0
    2.9063   -2.9740    0.0000 H   0  0  0  0  0  0  0  0  0  0  0  0
    3.9838   -0.4208    0.0000 C   0  0  0  0  0  0  0  0  0  0  0  0
    5.4579   -1.0429    0.0000 H   0  0  0  0  0  0  0  0  0  0  0  0
    3.7855    1.1669    0.0000 H   0  0  0  0  0  0  0  0  0  0  0  0
  1  2  1  0  0  0  0
  1  3  1  0  0  0  0
  3  4  1  0  0  0  0
  3  5  1  0  0  0  0
  3  6  1  0  0  0  0
  6  7  1  0  0  0  0
  6  8  1  0  0  0  0
  8  9  1  0  0  0  0
  8 10  1  0  0  0  0
  8 11  1  0  0  0  0
 11  1  1  0  0  0  0
 11 12  1  0  0  0  0
 11 13  1  0  0  0  0
 13 14  1  0  0  0  0
 13 15  2  0  0  0  0
 15  6  1  0  0  0  0
 15 16  1  0  0  0  0
  1 17  1  0  0  0  0
 17 18  1  0  0  0  0
 17 19  2  0  0  0  0
 19 20  1  0  0  0  0
 19 21  1  0  0  0  0
M  END
> <ChemID>
102195

> <source_casrn>
3048-64-4

> <CAS>
3048-64-4

> <SMILES>
C=CC1CC2CC1C=C2

> <NAME>
Vinylnorbornene

> <preferred_name>
5-Vinyl-2-norbornene

> <iupac>
5-ethenylbicyclo[2.2.1]hept-2-ene

> <MPID>
26746

> <dsstox_substance_id>
DTXSID6029250

> <Canonical_QSARr>
C=CC1CC2CC1C=C2

> <InChI_Code_QSARr>
InChI=1S/C9H12/c1-2-8-5-7-3-4-9(8)6-7/h2-4,7-9H,1,5-6H2

> <InChI Key_QSARr>
INYHZQLKOKTDAI-UHFFFAOYSA-N

> <Salt_Solvent>
?

> <LogVP>
0.9917

$$$$
102199
  -INDIGO-08031723152D

 20 20  0  0  0  0  0  0  0  0999 V2000
    0.5473    1.5035    0.0000 N   0  0  0  0  0  0  0  0  0  0  0  0
    2.1229    1.7813    0.0000 C   0  0  0  0  0  0  0  0  0  0  0  0
    3.6986    2.0592    0.0000 O   0  0  0  0  0  0  0  0  0  0  0  0
   -0.0000    0.0000    0.0000 C   0  0  0  0  0  0  0  0  0  0  0  0
    1.5757   -0.2778    0.0000 H   0  0  0  0  0  0  0  0  0  0  0  0
   -1.3857    0.8000    0.0000 C   0  0  0  0  0  0  0  0  0  0  0  0
   -0.3571    2.0257    0.0000 H   0  0  0  0  0  0  0  0  0  0  0  0
   -2.4141    2.0257    0.0000 H   0  0  0  0  0  0  0  0  0  0  0  0
   -2.7712    0.0000    0.0000 C   0  0  0  0  0  0  0  0  0  0  0  0
   -3.3185    1.5035    0.0000 H   0  0  0  0  0  0  0  0  0  0  0  0
   -4.3470   -0.2778    0.0000 H   0  0  0  0  0  0  0  0  0  0  0  0
   -2.7712   -1.6000    0.0000 C   0  0  0  0  0  0  0  0  0  0  0  0
   -4.3470   -1.3221    0.0000 H   0  0  0  0  0  0  0  0  0  0  0  0
   -3.3185   -3.1036    0.0000 H   0  0  0  0  0  0  0  0  0  0  0  0
   -1.3857   -2.4000    0.0000 C   0  0  0  0  0  0  0  0  0  0  0  0
   -2.4141   -3.6257    0.0000 H   0  0  0  0  0  0  0  0  0  0  0  0
   -0.3571   -3.6257    0.0000 H   0  0  0  0  0  0  0  0  0  0  0  0
   -0.0000   -1.6000    0.0000 C   0  0  0  0  0  0  0  0  0  0  0  0
    0.5473   -3.1036    0.0000 H   0  0  0  0  0  0  0  0  0  0  0  0
    1.5757   -1.3221    0.0000 H   0  0  0  0  0  0  0  0  0  0  0  0
  1  2  2  0  0  0  0
  2  3  2  0  0  0  0
  1  4  1  0  0  0  0
  4  5  1  0  0  0  0
  4  6  1  0  0  0  0
  6  7  1  0  0  0  0
  6  8  1  0  0  0  0
  6  9  1  0  0  0  0
  9 10  1  0  0  0  0
  9 11  1  0  0  0  0
  9 12  1  0  0  0  0
 12 13  1  0  0  0  0
 12 14  1  0  0  0  0
 12 15  1  0  0  0  0
 15 16  1  0  0  0  0
 15 17  1  0  0  0  0
 15 18  1  0  0  0  0
 18  4  1  0  0  0  0
 18 19  1  0  0  0  0
 18 20  1  0  0  0  0
M  END
> <ChemID>
102199

> <source_casrn>
3173-53-3

> <CAS>
3173-53-3

> <SMILES>
O=C=NC1CCCCC1

> <NAME>
ISOCYANATOCYCLOHEXANE

> <preferred_name>
Isocyanatocyclohexane

> <iupac>
isocyanatocyclohexane

> <MPID>
26750

> <dsstox_substance_id>
DTXSID8025464

> <Canonical_QSARr>
O=C=NC1CCCCC1

> <InChI_Code_QSARr>
InChI=1S/C7H11NO/c9-6-8-7-4-2-1-3-5-7/h7H,1-5H2

> <InChI Key_QSARr>
KQWGXHWJMSMDJJ-UHFFFAOYSA-N

> <Salt_Solvent>
?

> <LogVP>
0.0086

$$$$
102203
  -INDIGO-08031723152D

 36 36  0  0  0  0  0  0  0  0999 V2000
    0.0001    0.0001    0.0000 C   0  0  0  0  0  0  0  0  0  0  0  0
    0.2778    1.5757    0.0000 H   0  0  0  0  0  0  0  0  0  0  0  0
   -1.3857   -0.7999    0.0000 C   0  0  0  0  0  0  0  0  0  0  0  0
   -1.9329    0.7034    0.0000 H   0  0  0  0  0  0  0  0  0  0  0  0
   -2.8891   -0.2527    0.0000 H   0  0  0  0  0  0  0  0  0  0  0  0
   -2.1857   -2.1857    0.0000 C   0  0  0  0  0  0  0  0  0  0  0  0
   -3.4114   -1.1571    0.0000 H   0  0  0  0  0  0  0  0  0  0  0  0
   -3.7613   -2.4634    0.0000 H   0  0  0  0  0  0  0  0  0  0  0  0
   -2.1857   -3.7857    0.0000 C   0  0  0  0  0  0  0  0  0  0  0  0
   -3.7613   -3.5079    0.0000 H   0  0  0  0  0  0  0  0  0  0  0  0
   -3.4114   -4.8141    0.0000 Br  0  0  0  0  0  0  0  0  0  0  0  0
   -1.3857   -5.1713    0.0000 C   0  0  0  0  0  0  0  0  0  0  0  0
   -2.8891   -5.7185    0.0000 H   0  0  0  0  0  0  0  0  0  0  0  0
   -1.9329   -6.6747    0.0000 Br  0  0  0  0  0  0  0  0  0  0  0  0
    0.0001   -5.9713    0.0000 C   0  0  0  0  0  0  0  0  0  0  0  0
   -1.0285   -7.1970    0.0000 H   0  0  0  0  0  0  0  0  0  0  0  0
    0.2778   -7.5470    0.0000 H   0  0  0  0  0  0  0  0  0  0  0  0
    1.6001   -5.9713    0.0000 C   0  0  0  0  0  0  0  0  0  0  0  0
    1.3222   -7.5470    0.0000 H   0  0  0  0  0  0  0  0  0  0  0  0
    2.6285   -7.1970    0.0000 H   0  0  0  0  0  0  0  0  0  0  0  0
    2.9857   -5.1713    0.0000 C   0  0  0  0  0  0  0  0  0  0  0  0
    3.5329   -6.6747    0.0000 H   0  0  0  0  0  0  0  0  0  0  0  0
    4.4891   -5.7185    0.0000 Br  0  0  0  0  0  0  0  0  0  0  0  0
    3.7857   -3.7856    0.0000 C   0  0  0  0  0  0  0  0  0  0  0  0
    5.0114   -4.8141    0.0000 H   0  0  0  0  0  0  0  0  0  0  0  0
    5.3613   -3.5079    0.0000 Br  0  0  0  0  0  0  0  0  0  0  0  0
    3.7857   -2.1856    0.0000 C   0  0  0  0  0  0  0  0  0  0  0  0
    5.3613   -2.4634    0.0000 H   0  0  0  0  0  0  0  0  0  0  0  0
    5.0114   -1.1571    0.0000 H   0  0  0  0  0  0  0  0  0  0  0  0
    2.9857   -0.7999    0.0000 C   0  0  0  0  0  0  0  0  0  0  0  0
    4.4891   -0.2527    0.0000 H   0  0  0  0  0  0  0  0  0  0  0  0
    3.5329    0.7034    0.0000 H   0  0  0  0  0  0  0  0  0  0  0  0
    1.6001    0.0001    0.0000 C   0  0  0  0  0  0  0  0  0  0  0  0
    2.6285    1.2257    0.0000 H   0  0  0  0  0  0  0  0  0  0  0  0
    1.3222    1.5757    0.0000 Br  0  0  0  0  0  0  0  0  0  0  0  0
   -1.0285    1.2257    0.0000 Br  0  0  0  0  0  0  0  0  0  0  0  0
  1  2  1  0  0  0  0
  1  3  1  0  0  0  0
  3  4  1  0  0  0  0
  3  5  1  0  0  0  0
  3  6  1  0  0  0  0
  6  7  1  0  0  0  0
  6  8  1  0  0  0  0
  6  9  1  0  0  0  0
  9 10  1  0  0  0  0
  9 11  1  0  0  0  0
  9 12  1  0  0  0  0
 12 13  1  0  0  0  0
 12 14  1  0  0  0  0
 12 15  1  0  0  0  0
 15 16  1  0  0  0  0
 15 17  1  0  0  0  0
 15 18  1  0  0  0  0
 18 19  1  0  0  0  0
 18 20  1  0  0  0  0
 18 21  1  0  0  0  0
 21 22  1  0  0  0  0
 21 23  1  0  0  0  0
 21 24  1  0  0  0  0
 24 25  1  0  0  0  0
 24 26  1  0  0  0  0
 24 27  1  0  0  0  0
 27 28  1  0  0  0  0
 27 29  1  0  0  0  0
 27 30  1  0  0  0  0
 30 31  1  0  0  0  0
 30 32  1  0  0  0  0
 30 33  1  0  0  0  0
 33  1  1  0  0  0  0
 33 34  1  0  0  0  0
 33 35  1  0  0  0  0
  1 36  1  0  0  0  0
M  END
> <ChemID>
102203

> <source_casrn>
3194-55-6

> <CAS>
3194-55-6

> <SMILES>
BrC1CCC(Br)C(Br)CCC(Br)C(Br)CCC1Br

> <NAME>
1,2,5,6,9,10-HEXABROMOCYCLODODECANE

> <preferred_name>
1,2,5,6,9,10-Hexabromocyclododecane

> <iupac>
C12H18Br6

> <MPID>
26754

> <dsstox_substance_id>
DTXSID4027527

> <Canonical_QSARr>
BrC1CCC(Br)C(Br)CCC(Br)C(Br)CCC1Br

> <InChI_Code_QSARr>
InChI=1S/C12H18Br6/c13-7-1-2-8(14)10(16)5-6-12(18)11(17)4-3-9(7)15/h7-12H,1-6H2

> <InChI Key_QSARr>
DEIGXXQKDWULML-UHFFFAOYSA-N

> <Salt_Solvent>
?

> <LogVP>
-6.3279

$$$$
102207
  -INDIGO-08031723152D

 28 30  0  0  0  0  0  0  0  0999 V2000
   -4.1569   -0.8000    0.0000 O   0  0  0  0  0  0  0  0  0  0  0  0
   -2.7712    0.0000    0.0000 C   0  0  0  0  0  0  0  0  0  0  0  0
   -1.3856   -0.8000    0.0000 C   0  0  0  0  0  0  0  0  0  0  0  0
   -1.3856   -2.4000    0.0000 H   0  0  0  0  0  0  0  0  0  0  0  0
    0.0001    0.0000    0.0000 C   0  0  0  0  0  0  0  0  0  0  0  0
    0.0001    1.6000    0.0000 C   0  0  0  0  0  0  0  0  0  0  0  0
    1.3856    2.4000    0.0000 C   0  0  0  0  0  0  0  0  0  0  0  0
    1.3856    4.0000    0.0000 O   0  0  0  0  0  0  0  0  0  0  0  0
    2.7714    1.6000    0.0000 C   0  0  0  0  0  0  0  0  0  0  0  0
    2.7714    0.0000    0.0000 C   0  0  0  0  0  0  0  0  0  0  0  0
    1.3856   -0.8000    0.0000 C   0  0  0  0  0  0  0  0  0  0  0  0
    1.3856   -2.4000    0.0000 O   0  0  0  0  0  0  0  0  0  0  0  0
    4.1569   -0.8000    0.0000 C   0  0  0  0  0  0  0  0  0  0  0  0
    4.1569   -2.4000    0.0000 H   0  0  0  0  0  0  0  0  0  0  0  0
    5.5427    0.0000    0.0000 C   0  0  0  0  0  0  0  0  0  0  0  0
    6.9282   -0.8000    0.0000 H   0  0  0  0  0  0  0  0  0  0  0  0
    5.5427    1.6000    0.0000 C   0  0  0  0  0  0  0  0  0  0  0  0
    6.9282    2.4000    0.0000 H   0  0  0  0  0  0  0  0  0  0  0  0
    4.1569    2.4000    0.0000 C   0  0  0  0  0  0  0  0  0  0  0  0
    4.1569    4.0000    0.0000 H   0  0  0  0  0  0  0  0  0  0  0  0
   -1.3856    2.4000    0.0000 C   0  0  0  0  0  0  0  0  0  0  0  0
   -1.3856    4.0000    0.0000 H   0  0  0  0  0  0  0  0  0  0  0  0
   -2.7712    1.6000    0.0000 C   0  0  0  0  0  0  0  0  0  0  0  0
   -4.1569    2.4000    0.0000 H   0  0  0  0  0  0  0  0  0  0  0  0
   -5.5427    0.0000    0.0000 C   0  0  0  0  0  0  0  0  0  0  0  0
   -6.9282   -0.8000    0.0000 H   0  0  0  0  0  0  0  0  0  0  0  0
   -6.9282    0.8000    0.0000 H   0  0  0  0  0  0  0  0  0  0  0  0
   -5.5425   -1.6000    0.0000 H   0  0  0  0  0  0  0  0  0  0  0  0
  1  2  1  0  0  0  0
  2  3  1  0  0  0  0
  3  4  1  0  0  0  0
  3  5  2  0  0  0  0
  5  6  1  0  0  0  0
  6  7  1  0  0  0  0
  7  8  2  0  0  0  0
  7  9  1  0  0  0  0
  9 10  1  0  0  0  0
 10 11  1  0  0  0  0
 11  5  1  0  0  0  0
 11 12  2  0  0  0  0
 10 13  2  0  0  0  0
 13 14  1  0  0  0  0
 13 15  1  0  0  0  0
 15 16  1  0  0  0  0
 15 17  2  0  0  0  0
 17 18  1  0  0  0  0
 17 19  1  0  0  0  0
 19  9  2  0  0  0  0
 19 20  1  0  0  0  0
  6 21  2  0  0  0  0
 21 22  1  0  0  0  0
 21 23  1  0  0  0  0
 23  2  2  0  0  0  0
 23 24  1  0  0  0  0
  1 25  1  0  0  0  0
 25 26  1  0  0  0  0
 25 27  1  0  0  0  0
 25 28  1  0  0  0  0
M  END
> <ChemID>
102207

> <source_casrn>
3274-20-2

> <CAS>
3274-20-2

> <SMILES>
COc1cc2c(cc1)C(=O)c1ccccc1C2=O

> <NAME>
2-METHOXY-9,10-ANTHRACENEDIONE

> <preferred_name>
9,10-Anthracenedione, 2-methoxy-

> <iupac>
2-methoxyanthracene-9,10-dione

> <MPID>
26758

> <dsstox_substance_id>
DTXSID50186409

> <Canonical_QSARr>
COc1cc2c(cc1)C(=O)c1ccccc1C2=O

> <InChI_Code_QSARr>
InChI=1S/C15H10O3/c1-18-9-6-7-12-13(8-9)15(17)11-5-3-2-4-10(11)14(12)16/h2-8H,1H3

> <InChI Key_QSARr>
APLQXUAECQNQFE-UHFFFAOYSA-N

> <Salt_Solvent>
?

> <LogVP>
-10.1646

$$$$
102211
  -INDIGO-08031723152D

 17 16  0  0  0  0  0  0  0  0999 V2000
    2.7712    0.0000    0.0000 C   0  0  0  0  0  0  0  0  0  0  0  0
    4.1569   -0.8000    0.0000 H   0  0  0  0  0  0  0  0  0  0  0  0
    4.1569    0.8000    0.0000 H   0  0  0  0  0  0  0  0  0  0  0  0
    2.7712   -1.6000    0.0000 H   0  0  0  0  0  0  0  0  0  0  0  0
    1.3856    0.8000    0.0000 C   0  0  0  0  0  0  0  0  0  0  0  0
   -0.0001    0.0000    0.0000 C   0  0  0  0  0  0  0  0  0  0  0  0
    0.8001   -1.3857    0.0000 H   0  0  0  0  0  0  0  0  0  0  0  0
   -1.3856   -0.8000    0.0000 C   0  0  0  0  0  0  0  0  0  0  0  0
   -0.7734   -2.2782    0.0000 H   0  0  0  0  0  0  0  0  0  0  0  0
   -1.9979   -2.2782    0.0000 H   0  0  0  0  0  0  0  0  0  0  0  0
   -2.7712    0.0000    0.0000 O   0  0  0  0  0  0  0  0  0  0  0  0
   -4.1569   -0.8000    0.0000 H   0  0  0  0  0  0  0  0  0  0  0  0
   -0.8000    1.3856    0.0000 C   0  0  0  0  0  0  0  0  0  0  0  0
   -1.6000    2.7713    0.0000 H   0  0  0  0  0  0  0  0  0  0  0  0
   -2.4000    1.3856    0.0000 H   0  0  0  0  0  0  0  0  0  0  0  0
    0.0001    2.7713    0.0000 H   0  0  0  0  0  0  0  0  0  0  0  0
    1.3856    2.4000    0.0000 O   0  0  0  0  0  0  0  0  0  0  0  0
  1  2  1  0  0  0  0
  1  3  1  0  0  0  0
  1  4  1  0  0  0  0
  1  5  1  0  0  0  0
  5  6  1  0  0  0  0
  6  7  1  0  0  0  0
  6  8  1  0  0  0  0
  8  9  1  0  0  0  0
  8 10  1  0  0  0  0
  8 11  1  0  0  0  0
 11 12  1  0  0  0  0
  6 13  1  0  0  0  0
 13 14  1  0  0  0  0
 13 15  1  0  0  0  0
 13 16  1  0  0  0  0
  5 17  2  0  0  0  0
M  END
> <ChemID>
102211

> <source_casrn>
3393-64-4

> <CAS>
NOCAS_871018

> <SMILES>
CC(CO)C(C)=O

> <NAME>
4-HYDROXY-3-METHYL-2-BUTANONE

> <preferred_name>


> <iupac>


> <MPID>
26762

> <dsstox_substance_id>
DTXSID80871018

> <Canonical_QSARr>
CC(CO)C(C)=O

> <InChI_Code_QSARr>
InChI=1S/C5H10O2/c1-4(3-6)5(2)7/h4,6H,3H2,1-2H3

> <InChI Key_QSARr>
VVSRECWZBBJOTG-UHFFFAOYSA-N

> <Salt_Solvent>
?

> <LogVP>
-0.6463

$$$$
102215
  -INDIGO-08031723152D

 21 20  0  0  0  0  0  0  0  0999 V2000
    0.0000    0.0000    0.0000 C   0  0  0  0  0  0  0  0  0  0  0  0
   -0.8000   -1.3856    0.0000 C   0  0  0  0  0  0  0  0  0  0  0  0
    0.4694   -2.3597    0.0000 H   0  0  0  0  0  0  0  0  0  0  0  0
   -0.5912   -2.9719    0.0000 H   0  0  0  0  0  0  0  0  0  0  0  0
   -2.4000   -1.3856    0.0000 C   0  0  0  0  0  0  0  0  0  0  0  0
   -3.2000   -2.7713    0.0000 H   0  0  0  0  0  0  0  0  0  0  0  0
   -4.0000   -1.3856    0.0000 H   0  0  0  0  0  0  0  0  0  0  0  0
   -1.6000   -2.7713    0.0000 H   0  0  0  0  0  0  0  0  0  0  0  0
    1.3856   -0.8000    0.0000 C   0  0  0  0  0  0  0  0  0  0  0  0
    2.7713    0.0000    0.0000 H   0  0  0  0  0  0  0  0  0  0  0  0
    1.6635   -2.3757    0.0000 C   0  0  0  0  0  0  0  0  0  0  0  0
    3.1670   -2.9229    0.0000 H   0  0  0  0  0  0  0  0  0  0  0  0
    0.4378   -3.4042    0.0000 H   0  0  0  0  0  0  0  0  0  0  0  0
    0.8000    1.3856    0.0000 C   0  0  0  0  0  0  0  0  0  0  0  0
    1.5999    2.7713    0.0000 H   0  0  0  0  0  0  0  0  0  0  0  0
    0.0000    2.7713    0.0000 H   0  0  0  0  0  0  0  0  0  0  0  0
    2.4000    1.3856    0.0000 H   0  0  0  0  0  0  0  0  0  0  0  0
   -1.3856    0.8000    0.0000 C   0  0  0  0  0  0  0  0  0  0  0  0
   -2.7713    1.6000    0.0000 H   0  0  0  0  0  0  0  0  0  0  0  0
   -2.7713    0.0000    0.0000 H   0  0  0  0  0  0  0  0  0  0  0  0
   -1.3856    2.4000    0.0000 H   0  0  0  0  0  0  0  0  0  0  0  0
  1  2  1  0  0  0  0
  2  3  1  0  0  0  0
  2  4  1  0  0  0  0
  2  5  1  0  0  0  0
  5  6  1  0  0  0  0
  5  7  1  0  0  0  0
  5  8  1  0  0  0  0
  1  9  1  0  0  0  0
  9 10  1  0  0  0  0
  9 11  2  0  0  0  0
 11 12  1  0  0  0  0
 11 13  1  0  0  0  0
  1 14  1  0  0  0  0
 14 15  1  0  0  0  0
 14 16  1  0  0  0  0
 14 17  1  0  0  0  0
  1 18  1  0  0  0  0
 18 19  1  0  0  0  0
 18 20  1  0  0  0  0
 18 21  1  0  0  0  0
M  END
> <ChemID>
102215

> <source_casrn>
3404-73-7

> <CAS>
3404-73-7

> <SMILES>
CCC(C)(C)C=C

> <NAME>
3,3-DIMETHYL-1-PENTENE

> <preferred_name>
1-Pentene, 3,3-dimethyl-

> <iupac>
3,3-Dimethylpent-1-ene

> <MPID>
26766

> <dsstox_substance_id>
DTXSID9075450

> <Canonical_QSARr>
CCC(C)(C)C=C

> <InChI_Code_QSARr>
InChI=1S/C7H14/c1-5-7(3,4)6-2/h5H,1,6H2,2-4H3

> <InChI Key_QSARr>
TXBZITDWMURSEF-UHFFFAOYSA-N

> <Salt_Solvent>
?

> <LogVP>
2.0173

$$$$
102219
  -INDIGO-08031723152D

 60 59  0  0  0  0  0  0  0  0999 V2000
   12.4706   -0.8000    0.0000 C   0  0  0  0  0  0  0  0  0  0  0  0
   13.8564    0.0000    0.0000 H   0  0  0  0  0  0  0  0  0  0  0  0
   12.4706   -2.4000    0.0000 H   0  0  0  0  0  0  0  0  0  0  0  0
   11.0853    0.0000    0.0000 C   0  0  0  0  0  0  0  0  0  0  0  0
   11.0853    1.6000    0.0000 H   0  0  0  0  0  0  0  0  0  0  0  0
    9.6995   -0.8000    0.0000 C   0  0  0  0  0  0  0  0  0  0  0  0
    9.0873   -2.2782    0.0000 H   0  0  0  0  0  0  0  0  0  0  0  0
   10.3118   -2.2782    0.0000 H   0  0  0  0  0  0  0  0  0  0  0  0
    8.3138    0.0000    0.0000 C   0  0  0  0  0  0  0  0  0  0  0  0
    8.9261    1.4782    0.0000 H   0  0  0  0  0  0  0  0  0  0  0  0
    7.7015    1.4782    0.0000 H   0  0  0  0  0  0  0  0  0  0  0  0
    6.9280   -0.8000    0.0000 C   0  0  0  0  0  0  0  0  0  0  0  0
    6.3157   -2.2782    0.0000 H   0  0  0  0  0  0  0  0  0  0  0  0
    7.5403   -2.2782    0.0000 H   0  0  0  0  0  0  0  0  0  0  0  0
    5.5427    0.0000    0.0000 C   0  0  0  0  0  0  0  0  0  0  0  0
    6.1550    1.4782    0.0000 H   0  0  0  0  0  0  0  0  0  0  0  0
    4.9304    1.4782    0.0000 H   0  0  0  0  0  0  0  0  0  0  0  0
    4.1569   -0.8000    0.0000 C   0  0  0  0  0  0  0  0  0  0  0  0
    3.5446   -2.2782    0.0000 H   0  0  0  0  0  0  0  0  0  0  0  0
    4.7692   -2.2782    0.0000 H   0  0  0  0  0  0  0  0  0  0  0  0
    2.7712    0.0000    0.0000 C   0  0  0  0  0  0  0  0  0  0  0  0
    3.3835    1.4782    0.0000 H   0  0  0  0  0  0  0  0  0  0  0  0
    2.1589    1.4782    0.0000 H   0  0  0  0  0  0  0  0  0  0  0  0
    1.3858   -0.8000    0.0000 C   0  0  0  0  0  0  0  0  0  0  0  0
    0.7735   -2.2782    0.0000 H   0  0  0  0  0  0  0  0  0  0  0  0
    1.9981   -2.2782    0.0000 H   0  0  0  0  0  0  0  0  0  0  0  0
    0.0001    0.0000    0.0000 C   0  0  0  0  0  0  0  0  0  0  0  0
    0.6124    1.4782    0.0000 H   0  0  0  0  0  0  0  0  0  0  0  0
   -0.6122    1.4782    0.0000 H   0  0  0  0  0  0  0  0  0  0  0  0
   -1.3857   -0.8000    0.0000 C   0  0  0  0  0  0  0  0  0  0  0  0
   -1.9980   -2.2782    0.0000 H   0  0  0  0  0  0  0  0  0  0  0  0
   -0.7734   -2.2782    0.0000 H   0  0  0  0  0  0  0  0  0  0  0  0
   -2.7715    0.0000    0.0000 C   0  0  0  0  0  0  0  0  0  0  0  0
   -2.1592    1.4782    0.0000 H   0  0  0  0  0  0  0  0  0  0  0  0
   -3.3838    1.4782    0.0000 H   0  0  0  0  0  0  0  0  0  0  0  0
   -4.1568   -0.8000    0.0000 C   0  0  0  0  0  0  0  0  0  0  0  0
   -4.7691   -2.2782    0.0000 H   0  0  0  0  0  0  0  0  0  0  0  0
   -3.5445   -2.2782    0.0000 H   0  0  0  0  0  0  0  0  0  0  0  0
   -5.5426    0.0000    0.0000 C   0  0  0  0  0  0  0  0  0  0  0  0
   -4.9303    1.4782    0.0000 H   0  0  0  0  0  0  0  0  0  0  0  0
   -6.1549    1.4782    0.0000 H   0  0  0  0  0  0  0  0  0  0  0  0
   -6.9283   -0.8000    0.0000 C   0  0  0  0  0  0  0  0  0  0  0  0
   -7.5406   -2.2782    0.0000 H   0  0  0  0  0  0  0  0  0  0  0  0
   -6.3160   -2.2782    0.0000 H   0  0  0  0  0  0  0  0  0  0  0  0
   -8.3137    0.0000    0.0000 C   0  0  0  0  0  0  0  0  0  0  0  0
   -7.7014    1.4782    0.0000 H   0  0  0  0  0  0  0  0  0  0  0  0
   -8.9260    1.4782    0.0000 H   0  0  0  0  0  0  0  0  0  0  0  0
   -9.6994   -0.8000    0.0000 C   0  0  0  0  0  0  0  0  0  0  0  0
  -10.3117   -2.2782    0.0000 H   0  0  0  0  0  0  0  0  0  0  0  0
   -9.0871   -2.2782    0.0000 H   0  0  0  0  0  0  0  0  0  0  0  0
  -11.0852    0.0000    0.0000 C   0  0  0  0  0  0  0  0  0  0  0  0
  -10.4729    1.4782    0.0000 H   0  0  0  0  0  0  0  0  0  0  0  0
  -11.6975    1.4782    0.0000 H   0  0  0  0  0  0  0  0  0  0  0  0
  -12.4710   -0.8000    0.0000 C   0  0  0  0  0  0  0  0  0  0  0  0
  -13.0833   -2.2782    0.0000 H   0  0  0  0  0  0  0  0  0  0  0  0
  -11.8587   -2.2782    0.0000 H   0  0  0  0  0  0  0  0  0  0  0  0
  -13.8563    0.0000    0.0000 C   0  0  0  0  0  0  0  0  0  0  0  0
  -15.2420    0.8000    0.0000 H   0  0  0  0  0  0  0  0  0  0  0  0
  -15.2420   -0.8000    0.0000 H   0  0  0  0  0  0  0  0  0  0  0  0
  -13.8563    1.6000    0.0000 H   0  0  0  0  0  0  0  0  0  0  0  0
  1  2  1  0  0  0  0
  1  3  1  0  0  0  0
  1  4  2  0  0  0  0
  4  5  1  0  0  0  0
  4  6  1  0  0  0  0
  6  7  1  0  0  0  0
  6  8  1  0  0  0  0
  6  9  1  0  0  0  0
  9 10  1  0  0  0  0
  9 11  1  0  0  0  0
  9 12  1  0  0  0  0
 12 13  1  0  0  0  0
 12 14  1  0  0  0  0
 12 15  1  0  0  0  0
 15 16  1  0  0  0  0
 15 17  1  0  0  0  0
 15 18  1  0  0  0  0
 18 19  1  0  0  0  0
 18 20  1  0  0  0  0
 18 21  1  0  0  0  0
 21 22  1  0  0  0  0
 21 23  1  0  0  0  0
 21 24  1  0  0  0  0
 24 25  1  0  0  0  0
 24 26  1  0  0  0  0
 24 27  1  0  0  0  0
 27 28  1  0  0  0  0
 27 29  1  0  0  0  0
 27 30  1  0  0  0  0
 30 31  1  0  0  0  0
 30 32  1  0  0  0  0
 30 33  1  0  0  0  0
 33 34  1  0  0  0  0
 33 35  1  0  0  0  0
 33 36  1  0  0  0  0
 36 37  1  0  0  0  0
 36 38  1  0  0  0  0
 36 39  1  0  0  0  0
 39 40  1  0  0  0  0
 39 41  1  0  0  0  0
 39 42  1  0  0  0  0
 42 43  1  0  0  0  0
 42 44  1  0  0  0  0
 42 45  1  0  0  0  0
 45 46  1  0  0  0  0
 45 47  1  0  0  0  0
 45 48  1  0  0  0  0
 48 49  1  0  0  0  0
 48 50  1  0  0  0  0
 48 51  1  0  0  0  0
 51 52  1  0  0  0  0
 51 53  1  0  0  0  0
 51 54  1  0  0  0  0
 54 55  1  0  0  0  0
 54 56  1  0  0  0  0
 54 57  1  0  0  0  0
 57 58  1  0  0  0  0
 57 59  1  0  0  0  0
 57 60  1  0  0  0  0
M  END
> <ChemID>
102219

> <source_casrn>
3452-07-1

> <CAS>
3452-07-1

> <SMILES>
CCCCCCCCCCCCCCCCCCC=C

> <NAME>
1-EICOSENE

> <preferred_name>
1-Eicosene

> <iupac>
icos-1-ene

> <MPID>
26770

> <dsstox_substance_id>
DTXSID1029257

> <Canonical_QSARr>
CCCCCCCCCCCCCCCCCCC=C

> <InChI_Code_QSARr>
InChI=1S/C20H40/c1-3-5-7-9-11-13-15-17-19-20-18-16-14-12-10-8-6-4-2/h3H,1,4-20H2,2H3

> <InChI Key_QSARr>
VAMFXQBUQXONLZ-UHFFFAOYSA-N

> <Salt_Solvent>
?

> <LogVP>
-4.9751

$$$$
102223
  -INDIGO-08031723152D

 53 52  0  0  0  0  0  0  0  0999 V2000
    9.6994   -0.8000    0.0000 C   0  0  0  0  0  0  0  0  0  0  0  0
   11.0851   -1.6000    0.0000 H   0  0  0  0  0  0  0  0  0  0  0  0
   11.0851    0.0000    0.0000 H   0  0  0  0  0  0  0  0  0  0  0  0
    8.3137    0.0000    0.0000 C   0  0  0  0  0  0  0  0  0  0  0  0
    8.9261    1.4782    0.0000 H   0  0  0  0  0  0  0  0  0  0  0  0
    7.7017    1.4782    0.0000 H   0  0  0  0  0  0  0  0  0  0  0  0
    6.9284   -0.8000    0.0000 C   0  0  0  0  0  0  0  0  0  0  0  0
    6.3160   -2.2782    0.0000 H   0  0  0  0  0  0  0  0  0  0  0  0
    7.5404   -2.2782    0.0000 H   0  0  0  0  0  0  0  0  0  0  0  0
    5.5427    0.0000    0.0000 C   0  0  0  0  0  0  0  0  0  0  0  0
    6.1547    1.4782    0.0000 H   0  0  0  0  0  0  0  0  0  0  0  0
    4.9303    1.4782    0.0000 H   0  0  0  0  0  0  0  0  0  0  0  0
    4.1570   -0.8000    0.0000 C   0  0  0  0  0  0  0  0  0  0  0  0
    3.5446   -2.2782    0.0000 H   0  0  0  0  0  0  0  0  0  0  0  0
    4.7693   -2.2782    0.0000 H   0  0  0  0  0  0  0  0  0  0  0  0
    2.7713    0.0000    0.0000 C   0  0  0  0  0  0  0  0  0  0  0  0
    3.3836    1.4782    0.0000 H   0  0  0  0  0  0  0  0  0  0  0  0
    2.1589    1.4782    0.0000 H   0  0  0  0  0  0  0  0  0  0  0  0
    1.3856   -0.8000    0.0000 C   0  0  0  0  0  0  0  0  0  0  0  0
    0.7732   -2.2782    0.0000 H   0  0  0  0  0  0  0  0  0  0  0  0
    1.9979   -2.2782    0.0000 H   0  0  0  0  0  0  0  0  0  0  0  0
   -0.0001    0.0000    0.0000 C   0  0  0  0  0  0  0  0  0  0  0  0
    0.6122    1.4782    0.0000 H   0  0  0  0  0  0  0  0  0  0  0  0
   -0.6121    1.4782    0.0000 H   0  0  0  0  0  0  0  0  0  0  0  0
   -1.3854   -0.8000    0.0000 C   0  0  0  0  0  0  0  0  0  0  0  0
   -1.9978   -2.2782    0.0000 H   0  0  0  0  0  0  0  0  0  0  0  0
   -0.7735   -2.2782    0.0000 H   0  0  0  0  0  0  0  0  0  0  0  0
   -2.7712    0.0000    0.0000 C   0  0  0  0  0  0  0  0  0  0  0  0
   -2.1592    1.4782    0.0000 H   0  0  0  0  0  0  0  0  0  0  0  0
   -3.3835    1.4782    0.0000 H   0  0  0  0  0  0  0  0  0  0  0  0
   -4.1569   -0.8000    0.0000 C   0  0  0  0  0  0  0  0  0  0  0  0
   -4.7692   -2.2782    0.0000 H   0  0  0  0  0  0  0  0  0  0  0  0
   -3.5445   -2.2782    0.0000 H   0  0  0  0  0  0  0  0  0  0  0  0
   -5.5426    0.0000    0.0000 C   0  0  0  0  0  0  0  0  0  0  0  0
   -4.9302    1.4782    0.0000 H   0  0  0  0  0  0  0  0  0  0  0  0
   -6.1549    1.4782    0.0000 H   0  0  0  0  0  0  0  0  0  0  0  0
   -6.9283   -0.8000    0.0000 C   0  0  0  0  0  0  0  0  0  0  0  0
   -7.5406   -2.2782    0.0000 H   0  0  0  0  0  0  0  0  0  0  0  0
   -6.3159   -2.2782    0.0000 H   0  0  0  0  0  0  0  0  0  0  0  0
   -8.3140    0.0000    0.0000 C   0  0  0  0  0  0  0  0  0  0  0  0
   -7.7016    1.4782    0.0000 H   0  0  0  0  0  0  0  0  0  0  0  0
   -8.9259    1.4782    0.0000 H   0  0  0  0  0  0  0  0  0  0  0  0
   -9.6997   -0.8000    0.0000 C   0  0  0  0  0  0  0  0  0  0  0  0
  -10.3117   -2.2782    0.0000 H   0  0  0  0  0  0  0  0  0  0  0  0
   -9.0873   -2.2782    0.0000 H   0  0  0  0  0  0  0  0  0  0  0  0
  -11.0850    0.0000    0.0000 C   0  0  0  0  0  0  0  0  0  0  0  0
  -10.4730    1.4782    0.0000 H   0  0  0  0  0  0  0  0  0  0  0  0
  -11.6974    1.4782    0.0000 H   0  0  0  0  0  0  0  0  0  0  0  0
  -12.4707   -0.8000    0.0000 C   0  0  0  0  0  0  0  0  0  0  0  0
  -13.8564   -1.6000    0.0000 H   0  0  0  0  0  0  0  0  0  0  0  0
  -13.8564    0.0000    0.0000 H   0  0  0  0  0  0  0  0  0  0  0  0
  -12.4707   -2.4000    0.0000 H   0  0  0  0  0  0  0  0  0  0  0  0
    9.6994   -2.4000    0.0000 Br  0  0  0  0  0  0  0  0  0  0  0  0
  1  2  1  0  0  0  0
  1  3  1  0  0  0  0
  1  4  1  0  0  0  0
  4  5  1  0  0  0  0
  4  6  1  0  0  0  0
  4  7  1  0  0  0  0
  7  8  1  0  0  0  0
  7  9  1  0  0  0  0
  7 10  1  0  0  0  0
 10 11  1  0  0  0  0
 10 12  1  0  0  0  0
 10 13  1  0  0  0  0
 13 14  1  0  0  0  0
 13 15  1  0  0  0  0
 13 16  1  0  0  0  0
 16 17  1  0  0  0  0
 16 18  1  0  0  0  0
 16 19  1  0  0  0  0
 19 20  1  0  0  0  0
 19 21  1  0  0  0  0
 19 22  1  0  0  0  0
 22 23  1  0  0  0  0
 22 24  1  0  0  0  0
 22 25  1  0  0  0  0
 25 26  1  0  0  0  0
 25 27  1  0  0  0  0
 25 28  1  0  0  0  0
 28 29  1  0  0  0  0
 28 30  1  0  0  0  0
 28 31  1  0  0  0  0
 31 32  1  0  0  0  0
 31 33  1  0  0  0  0
 31 34  1  0  0  0  0
 34 35  1  0  0  0  0
 34 36  1  0  0  0  0
 34 37  1  0  0  0  0
 37 38  1  0  0  0  0
 37 39  1  0  0  0  0
 37 40  1  0  0  0  0
 40 41  1  0  0  0  0
 40 42  1  0  0  0  0
 40 43  1  0  0  0  0
 43 44  1  0  0  0  0
 43 45  1  0  0  0  0
 43 46  1  0  0  0  0
 46 47  1  0  0  0  0
 46 48  1  0  0  0  0
 46 49  1  0  0  0  0
 49 50  1  0  0  0  0
 49 51  1  0  0  0  0
 49 52  1  0  0  0  0
  1 53  1  0  0  0  0
M  END
> <ChemID>
102223

> <source_casrn>
3508-00-7

> <CAS>
3508-00-7

> <SMILES>
CCCCCCCCCCCCCCCCCBr

> <NAME>
1-BROMOHEPTADECANE

> <preferred_name>
Heptadecane,1-bromo-

> <iupac>
1-bromoheptadecane

> <MPID>
26774

> <dsstox_substance_id>
DTXSID0049280

> <Canonical_QSARr>
CCCCCCCCCCCCCCCCCBr

> <InChI_Code_QSARr>
InChI=1S/C17H35Br/c1-2-3-4-5-6-7-8-9-10-11-12-13-14-15-16-17-18/h2-17H2,1H3

> <InChI Key_QSARr>
HHSDZLLPIXMEIU-UHFFFAOYSA-N

> <Salt_Solvent>
?

> <LogVP>
-4.7373

$$$$
102227
  -INDIGO-08031723152D

 57 56  0  0  0  0  0  0  0  0999 V2000
    2.4001   -1.3856    0.0000 Si  0  0  0  0  0  0  0  0  0  0  0  0
    3.9999   -1.3856    0.0000 O   0  0  0  0  0  0  0  0  0  0  0  0
    5.0285   -2.6113    0.0000 Si  0  0  0  0  0  0  0  0  0  0  0  0
    6.0569   -3.8370    0.0000 C   0  0  0  0  0  0  0  0  0  0  0  0
    7.0854   -5.0627    0.0000 H   0  0  0  0  0  0  0  0  0  0  0  0
    7.6326   -3.5591    0.0000 H   0  0  0  0  0  0  0  0  0  0  0  0
    5.5097   -5.3404    0.0000 H   0  0  0  0  0  0  0  0  0  0  0  0
    6.2542   -1.5828    0.0000 C   0  0  0  0  0  0  0  0  0  0  0  0
    7.4799   -0.5543    0.0000 H   0  0  0  0  0  0  0  0  0  0  0  0
    7.7576   -2.1301    0.0000 H   0  0  0  0  0  0  0  0  0  0  0  0
    6.5320   -3.1586    0.0000 H   0  0  0  0  0  0  0  0  0  0  0  0
    3.8028   -3.6398    0.0000 C   0  0  0  0  0  0  0  0  0  0  0  0
    4.0806   -5.2155    0.0000 H   0  0  0  0  0  0  0  0  0  0  0  0
    3.5250   -2.0640    0.0000 H   0  0  0  0  0  0  0  0  0  0  0  0
    5.3063   -4.1870    0.0000 H   0  0  0  0  0  0  0  0  0  0  0  0
    2.9473   -2.8892    0.0000 O   0  0  0  0  0  0  0  0  0  0  0  0
    1.9187   -4.1149    0.0000 Si  0  0  0  0  0  0  0  0  0  0  0  0
    0.8903   -5.3404    0.0000 C   0  0  0  0  0  0  0  0  0  0  0  0
   -0.1382   -6.5661    0.0000 H   0  0  0  0  0  0  0  0  0  0  0  0
   -0.6854   -5.0627    0.0000 H   0  0  0  0  0  0  0  0  0  0  0  0
    1.4376   -6.8440    0.0000 H   0  0  0  0  0  0  0  0  0  0  0  0
    0.6931   -3.0864    0.0000 C   0  0  0  0  0  0  0  0  0  0  0  0
   -0.8104   -3.6337    0.0000 H   0  0  0  0  0  0  0  0  0  0  0  0
    0.4153   -4.6620    0.0000 H   0  0  0  0  0  0  0  0  0  0  0  0
   -0.5326   -2.0579    0.0000 H   0  0  0  0  0  0  0  0  0  0  0  0
    3.1444   -5.1432    0.0000 C   0  0  0  0  0  0  0  0  0  0  0  0
    2.8666   -6.7190    0.0000 H   0  0  0  0  0  0  0  0  0  0  0  0
    4.3701   -6.1717    0.0000 H   0  0  0  0  0  0  0  0  0  0  0  0
    1.6410   -5.6905    0.0000 H   0  0  0  0  0  0  0  0  0  0  0  0
    2.9473    0.1178    0.0000 O   0  0  0  0  0  0  0  0  0  0  0  0
    4.3328    0.9179    0.0000 Si  0  0  0  0  0  0  0  0  0  0  0  0
    5.7185    1.7178    0.0000 C   0  0  0  0  0  0  0  0  0  0  0  0
    5.7185    3.3179    0.0000 H   0  0  0  0  0  0  0  0  0  0  0  0
    7.1042    2.5179    0.0000 H   0  0  0  0  0  0  0  0  0  0  0  0
    4.3328    2.5179    0.0000 H   0  0  0  0  0  0  0  0  0  0  0  0
    3.5329    2.3035    0.0000 C   0  0  0  0  0  0  0  0  0  0  0  0
    2.7328    3.6891    0.0000 H   0  0  0  0  0  0  0  0  0  0  0  0
    4.3328    3.6891    0.0000 H   0  0  0  0  0  0  0  0  0  0  0  0
    1.9571    2.5813    0.0000 H   0  0  0  0  0  0  0  0  0  0  0  0
    5.1329   -0.4677    0.0000 C   0  0  0  0  0  0  0  0  0  0  0  0
    5.9329    0.9179    0.0000 H   0  0  0  0  0  0  0  0  0  0  0  0
    3.5329   -0.4677    0.0000 H   0  0  0  0  0  0  0  0  0  0  0  0
    6.6364    0.0794    0.0000 H   0  0  0  0  0  0  0  0  0  0  0  0
    0.8001   -1.3856    0.0000 O   0  0  0  0  0  0  0  0  0  0  0  0
   -0.0000    0.0000    0.0000 Si  0  0  0  0  0  0  0  0  0  0  0  0
   -1.0284    1.2257    0.0000 C   0  0  0  0  0  0  0  0  0  0  0  0
   -2.0570    2.4514    0.0000 H   0  0  0  0  0  0  0  0  0  0  0  0
   -2.6042    0.9478    0.0000 H   0  0  0  0  0  0  0  0  0  0  0  0
   -0.4812    2.7291    0.0000 H   0  0  0  0  0  0  0  0  0  0  0  0
    1.3857    0.7999    0.0000 C   0  0  0  0  0  0  0  0  0  0  0  0
    2.7712    1.6000    0.0000 H   0  0  0  0  0  0  0  0  0  0  0  0
    1.1079    2.3757    0.0000 H   0  0  0  0  0  0  0  0  0  0  0  0
   -0.0000    1.6000    0.0000 H   0  0  0  0  0  0  0  0  0  0  0  0
   -1.3856   -0.8001    0.0000 C   0  0  0  0  0  0  0  0  0  0  0  0
   -2.7713   -1.6000    0.0000 H   0  0  0  0  0  0  0  0  0  0  0  0
   -1.3856   -2.3999    0.0000 H   0  0  0  0  0  0  0  0  0  0  0  0
   -2.7713    0.0000    0.0000 H   0  0  0  0  0  0  0  0  0  0  0  0
  1  2  1  0  0  0  0
  2  3  1  0  0  0  0
  3  4  1  0  0  0  0
  4  5  1  0  0  0  0
  4  6  1  0  0  0  0
  4  7  1  0  0  0  0
  3  8  1  0  0  0  0
  8  9  1  0  0  0  0
  8 10  1  0  0  0  0
  8 11  1  0  0  0  0
  3 12  1  0  0  0  0
 12 13  1  0  0  0  0
 12 14  1  0  0  0  0
 12 15  1  0  0  0  0
  1 16  1  0  0  0  0
 16 17  1  0  0  0  0
 17 18  1  0  0  0  0
 18 19  1  0  0  0  0
 18 20  1  0  0  0  0
 18 21  1  0  0  0  0
 17 22  1  0  0  0  0
 22 23  1  0  0  0  0
 22 24  1  0  0  0  0
 22 25  1  0  0  0  0
 17 26  1  0  0  0  0
 26 27  1  0  0  0  0
 26 28  1  0  0  0  0
 26 29  1  0  0  0  0
  1 30  1  0  0  0  0
 30 31  1  0  0  0  0
 31 32  1  0  0  0  0
 32 33  1  0  0  0  0
 32 34  1  0  0  0  0
 32 35  1  0  0  0  0
 31 36  1  0  0  0  0
 36 37  1  0  0  0  0
 36 38  1  0  0  0  0
 36 39  1  0  0  0  0
 31 40  1  0  0  0  0
 40 41  1  0  0  0  0
 40 42  1  0  0  0  0
 40 43  1  0  0  0  0
  1 44  1  0  0  0  0
 44 45  1  0  0  0  0
 45 46  1  0  0  0  0
 46 47  1  0  0  0  0
 46 48  1  0  0  0  0
 46 49  1  0  0  0  0
 45 50  1  0  0  0  0
 50 51  1  0  0  0  0
 50 52  1  0  0  0  0
 50 53  1  0  0  0  0
 45 54  1  0  0  0  0
 54 55  1  0  0  0  0
 54 56  1  0  0  0  0
 54 57  1  0  0  0  0
M  END
> <ChemID>
102227

> <source_casrn>
3555-47-3

> <CAS>
3555-47-3

> <SMILES>
C[Si](C)(C)O[Si](O[Si](C)(C)C)(O[Si](C)(C)C)O[Si](C)(C)C

> <NAME>
TETRAKIS(TRIMETHYLSILOXY)SILANE

> <preferred_name>
Tetrakis(trimethylsiloxy)silane

> <iupac>
tetrakis(trimethylsilyl) orthosilicate

> <MPID>
26778

> <dsstox_substance_id>
DTXSID9042463

> <Canonical_QSARr>
C[Si](C)(C)O[Si](O[Si](C)(C)C)(O[Si](C)(C)C)O[Si](C)(C)C

> <InChI_Code_QSARr>
InChI=1S/C12H36O4Si5/c1-17(2,3)13-21(14-18(4,5)6,15-19(7,8)9)16-20(10,11)12/h1-12H3

> <InChI Key_QSARr>
VNRWTCZXQWOWIG-UHFFFAOYSA-N

> <Salt_Solvent>
?

> <LogVP>
-1.1726

$$$$
102231
  -INDIGO-08031723152D

 42 45  0  0  0  0  0  0  0  0999 V2000
   -5.1728    1.3761    0.0000 C   0  0  0  0  0  0  0  0  0  0  0  0
   -3.6511    1.8707    0.0000 C   0  0  0  0  0  0  0  0  0  0  0  0
   -3.1568    3.3923    0.0000 O   0  0  0  0  0  0  0  0  0  0  0  0
   -2.7108    0.5761    0.0000 C   0  0  0  0  0  0  0  0  0  0  0  0
   -1.5217    1.6469    0.0000 H   0  0  0  0  0  0  0  0  0  0  0  0
   -1.5217   -0.4945    0.0000 C   0  0  0  0  0  0  0  0  0  0  0  0
   -1.8543   -2.0595    0.0000 O   0  0  0  0  0  0  0  0  0  0  0  0
   -0.0001   -0.0000    0.0000 C   0  0  0  0  0  0  0  0  0  0  0  0
   -0.4944    1.5216    0.0000 H   0  0  0  0  0  0  0  0  0  0  0  0
    1.5217    0.4944    0.0000 C   0  0  0  0  0  0  0  0  0  0  0  0
    2.7108   -0.5762    0.0000 C   0  0  0  0  0  0  0  0  0  0  0  0
    2.3782   -2.1412    0.0000 H   0  0  0  0  0  0  0  0  0  0  0  0
    4.2324   -0.0818    0.0000 C   0  0  0  0  0  0  0  0  0  0  0  0
    5.4215   -1.1524    0.0000 H   0  0  0  0  0  0  0  0  0  0  0  0
    4.5650    1.4833    0.0000 C   0  0  0  0  0  0  0  0  0  0  0  0
    6.0868    1.9778    0.0000 H   0  0  0  0  0  0  0  0  0  0  0  0
    3.3761    2.5539    0.0000 C   0  0  0  0  0  0  0  0  0  0  0  0
    3.7087    4.1189    0.0000 H   0  0  0  0  0  0  0  0  0  0  0  0
    1.8543    2.0595    0.0000 C   0  0  0  0  0  0  0  0  0  0  0  0
    0.6654    3.1301    0.0000 H   0  0  0  0  0  0  0  0  0  0  0  0
    0.7512   -1.4127    0.0000 C   0  0  0  0  0  0  0  0  0  0  0  0
    0.1519   -2.8962    0.0000 C   0  0  0  0  0  0  0  0  0  0  0  0
   -1.4327   -3.1189    0.0000 H   0  0  0  0  0  0  0  0  0  0  0  0
    1.1368   -4.1570    0.0000 C   0  0  0  0  0  0  0  0  0  0  0  0
    0.5374   -5.6405    0.0000 H   0  0  0  0  0  0  0  0  0  0  0  0
    2.7212   -3.9344    0.0000 C   0  0  0  0  0  0  0  0  0  0  0  0
    3.7064   -5.1951    0.0000 Cl  0  0  0  0  0  0  0  0  0  0  0  0
    3.3206   -2.4508    0.0000 C   0  0  0  0  0  0  0  0  0  0  0  0
    4.9051   -2.2282    0.0000 H   0  0  0  0  0  0  0  0  0  0  0  0
    2.3356   -1.1901    0.0000 C   0  0  0  0  0  0  0  0  0  0  0  0
    2.9350    0.2935    0.0000 H   0  0  0  0  0  0  0  0  0  0  0  0
   -3.6511   -0.7183    0.0000 C   0  0  0  0  0  0  0  0  0  0  0  0
   -3.1568   -2.2399    0.0000 O   0  0  0  0  0  0  0  0  0  0  0  0
   -5.1728   -0.2239    0.0000 C   0  0  0  0  0  0  0  0  0  0  0  0
   -6.5584   -1.0239    0.0000 C   0  0  0  0  0  0  0  0  0  0  0  0
   -6.5584   -2.6239    0.0000 H   0  0  0  0  0  0  0  0  0  0  0  0
   -7.9442   -0.2239    0.0000 C   0  0  0  0  0  0  0  0  0  0  0  0
   -9.3298   -1.0239    0.0000 H   0  0  0  0  0  0  0  0  0  0  0  0
   -7.9442    1.3761    0.0000 C   0  0  0  0  0  0  0  0  0  0  0  0
   -9.3298    2.1761    0.0000 H   0  0  0  0  0  0  0  0  0  0  0  0
   -6.5584    2.1761    0.0000 C   0  0  0  0  0  0  0  0  0  0  0  0
   -6.5584    3.7761    0.0000 H   0  0  0  0  0  0  0  0  0  0  0  0
  1  2  1  0  0  0  0
  2  3  2  0  0  0  0
  2  4  1  0  0  0  0
  4  5  1  0  0  0  0
  4  6  1  0  0  0  0
  6  7  2  0  0  0  0
  6  8  1  0  0  0  0
  8  9  1  0  0  0  0
  8 10  1  0  0  0  0
 10 11  1  0  0  0  0
 11 12  1  0  0  0  0
 11 13  2  0  0  0  0
 13 14  1  0  0  0  0
 13 15  1  0  0  0  0
 15 16  1  0  0  0  0
 15 17  2  0  0  0  0
 17 18  1  0  0  0  0
 17 19  1  0  0  0  0
 19 10  2  0  0  0  0
 19 20  1  0  0  0  0
  8 21  1  0  0  0  0
 21 22  1  0  0  0  0
 22 23  1  0  0  0  0
 22 24  2  0  0  0  0
 24 25  1  0  0  0  0
 24 26  1  0  0  0  0
 26 27  1  0  0  0  0
 26 28  2  0  0  0  0
 28 29  1  0  0  0  0
 28 30  1  0  0  0  0
 30 21  2  0  0  0  0
 30 31  1  0  0  0  0
  4 32  1  0  0  0  0
 32 33  2  0  0  0  0
 32 34  1  0  0  0  0
 34  1  1  0  0  0  0
 34 35  2  0  0  0  0
 35 36  1  0  0  0  0
 35 37  1  0  0  0  0
 37 38  1  0  0  0  0
 37 39  2  0  0  0  0
 39 40  1  0  0  0  0
 39 41  1  0  0  0  0
 41  1  2  0  0  0  0
 41 42  1  0  0  0  0
M  END
> <ChemID>
102231

> <source_casrn>
3691-35-8

> <CAS>
3691-35-8

> <SMILES>
O=C(C(c1ccc(Cl)cc1)c1ccccc1)C1C(=O)c2ccccc2C1=O

> <NAME>
CHLOROPHACINONE

> <preferred_name>
Chlorophacinone

> <iupac>
2-[(4-chlorophenyl)(phenyl)acetyl]-1H-indene-1,3(2H)-dione

> <MPID>
26782

> <dsstox_substance_id>
DTXSID2032348

> <Canonical_QSARr>
O=C(C(c1ccc(Cl)cc1)c1ccccc1)C1C(=O)c2ccccc2C1=O

> <InChI_Code_QSARr>
InChI=1S/C23H15ClO3/c24-16-12-10-15(11-13-16)19(14-6-2-1-3-7-14)23(27)20-21(25)17-8-4-5-9-18(17)22(20)26/h1-13,19-20H

> <InChI Key_QSARr>
UDHXJZHVNHGCEC-UHFFFAOYSA-N

> <Salt_Solvent>
?

> <LogVP>
-9.1249

$$$$
102237
  -INDIGO-08031723152D

 20 21  0  0  0  0  0  0  0  0999 V2000
   -4.8000    2.7713    0.0000 Cl  0  0  0  0  0  0  0  0  0  0  0  0
   -4.0000    1.3856    0.0000 C   0  0  0  0  0  0  0  0  0  0  0  0
   -2.4001    1.3856    0.0000 N   0  0  0  0  0  0  0  0  0  0  0  0
   -1.6001   -0.0000    0.0000 C   0  0  0  0  0  0  0  0  0  0  0  0
    0.0001    0.0000    0.0000 C   0  0  0  0  0  0  0  0  0  0  0  0
    0.8001    1.3856    0.0000 C   0  0  0  0  0  0  0  0  0  0  0  0
    0.0001    2.7713    0.0000 H   0  0  0  0  0  0  0  0  0  0  0  0
    2.4000    1.3856    0.0000 C   0  0  0  0  0  0  0  0  0  0  0  0
    3.2000    2.7713    0.0000 H   0  0  0  0  0  0  0  0  0  0  0  0
    3.2000    0.0000    0.0000 C   0  0  0  0  0  0  0  0  0  0  0  0
    4.8000    0.0000    0.0000 H   0  0  0  0  0  0  0  0  0  0  0  0
    2.4000   -1.3856    0.0000 C   0  0  0  0  0  0  0  0  0  0  0  0
    3.2000   -2.7713    0.0000 H   0  0  0  0  0  0  0  0  0  0  0  0
    0.8001   -1.3856    0.0000 C   0  0  0  0  0  0  0  0  0  0  0  0
    0.0001   -2.7713    0.0000 H   0  0  0  0  0  0  0  0  0  0  0  0
   -2.4001   -1.3856    0.0000 N   0  0  0  0  0  0  0  0  0  0  0  0
   -4.0000   -1.3856    0.0000 C   0  0  0  0  0  0  0  0  0  0  0  0
   -4.8000   -2.7713    0.0000 Cl  0  0  0  0  0  0  0  0  0  0  0  0
   -4.8000   -0.0000    0.0000 C   0  0  0  0  0  0  0  0  0  0  0  0
   -6.4000   -0.0000    0.0000 H   0  0  0  0  0  0  0  0  0  0  0  0
  1  2  1  0  0  0  0
  2  3  1  0  0  0  0
  3  4  2  0  0  0  0
  4  5  1  0  0  0  0
  5  6  1  0  0  0  0
  6  7  1  0  0  0  0
  6  8  2  0  0  0  0
  8  9  1  0  0  0  0
  8 10  1  0  0  0  0
 10 11  1  0  0  0  0
 10 12  2  0  0  0  0
 12 13  1  0  0  0  0
 12 14  1  0  0  0  0
 14  5  2  0  0  0  0
 14 15  1  0  0  0  0
  4 16  1  0  0  0  0
 16 17  2  0  0  0  0
 17 18  1  0  0  0  0
 17 19  1  0  0  0  0
 19  2  2  0  0  0  0
 19 20  1  0  0  0  0
M  END
> <ChemID>
102237

> <source_casrn>
3740-92-9

> <CAS>
3740-92-9

> <SMILES>
Clc1cc(Cl)[n]c([n]1)-c1ccccc1

> <NAME>
FENCLORIM

> <preferred_name>
Fenclorim [ISO]

> <iupac>
4,6-Dichloro-2-phenylpyrimidine

> <MPID>
26787

> <dsstox_substance_id>
DTXSID90190843

> <Canonical_QSARr>
Clc1cc(Cl)[n]c([n]1)-c1ccccc1

> <InChI_Code_QSARr>
InChI=1S/C10H6Cl2N2/c11-8-6-9(12)14-10(13-8)7-4-2-1-3-5-7/h1-6H

> <InChI Key_QSARr>
NRFQZTCQAYEXEE-UHFFFAOYSA-N

> <Salt_Solvent>
?

> <LogVP>
-4.0458

$$$$
102241
  -INDIGO-08031723152D

 21 22  0  0  0  0  0  0  0  0999 V2000
    4.2758   -0.2435    0.0000 C   0  0  0  0  0  0  0  0  0  0  0  0
    4.6085    1.3215    0.0000 O   0  0  0  0  0  0  0  0  0  0  0  0
    5.4648   -1.3142    0.0000 O   0  0  0  0  0  0  0  0  0  0  0  0
    6.9865   -0.8197    0.0000 H   0  0  0  0  0  0  0  0  0  0  0  0
    2.7541   -0.7380    0.0000 C   0  0  0  0  0  0  0  0  0  0  0  0
    3.0456   -2.3112    0.0000 H   0  0  0  0  0  0  0  0  0  0  0  0
    1.8478   -2.0565    0.0000 H   0  0  0  0  0  0  0  0  0  0  0  0
    1.5651    0.3327    0.0000 N   0  0  0  0  0  0  0  0  0  0  0  0
    1.7323    1.9239    0.0000 C   0  0  0  0  0  0  0  0  0  0  0  0
    3.1179    2.7239    0.0000 O   0  0  0  0  0  0  0  0  0  0  0  0
    0.2707    2.5746    0.0000 S   0  0  0  0  0  0  0  0  0  0  0  0
   -0.8000    1.3856    0.0000 C   0  0  0  0  0  0  0  0  0  0  0  0
    0.0000   -0.0000    0.0000 C   0  0  0  0  0  0  0  0  0  0  0  0
   -0.8000   -1.3856    0.0000 C   0  0  0  0  0  0  0  0  0  0  0  0
   -2.4001   -1.3856    0.0000 C   0  0  0  0  0  0  0  0  0  0  0  0
   -3.2001   -2.7713    0.0000 H   0  0  0  0  0  0  0  0  0  0  0  0
   -3.2001   -0.0000    0.0000 C   0  0  0  0  0  0  0  0  0  0  0  0
   -4.8000   -0.0000    0.0000 H   0  0  0  0  0  0  0  0  0  0  0  0
   -2.4001    1.3856    0.0000 C   0  0  0  0  0  0  0  0  0  0  0  0
   -3.2001    2.7713    0.0000 H   0  0  0  0  0  0  0  0  0  0  0  0
    0.0000   -2.7713    0.0000 Cl  0  0  0  0  0  0  0  0  0  0  0  0
  1  2  2  0  0  0  0
  1  3  1  0  0  0  0
  3  4  1  0  0  0  0
  1  5  1  0  0  0  0
  5  6  1  0  0  0  0
  5  7  1  0  0  0  0
  5  8  1  0  0  0  0
  8  9  1  0  0  0  0
  9 10  2  0  0  0  0
  9 11  1  0  0  0  0
 11 12  1  0  0  0  0
 12 13  1  0  0  0  0
 13  8  1  0  0  0  0
 13 14  2  0  0  0  0
 14 15  1  0  0  0  0
 15 16  1  0  0  0  0
 15 17  2  0  0  0  0
 17 18  1  0  0  0  0
 17 19  1  0  0  0  0
 19 12  2  0  0  0  0
 19 20  1  0  0  0  0
 14 21  1  0  0  0  0
M  END
> <ChemID>
102241

> <source_casrn>
3813-05-6

> <CAS>
3813-05-6

> <SMILES>
OC(=O)CN1c2c(Cl)cccc2SC1=O

> <NAME>
BENAZOLIN

> <preferred_name>
Benazolin

> <iupac>
(4-chloro-2-oxo-1,3-benzothiazol-3(2H)-yl)acetic acid

> <MPID>
26791

> <dsstox_substance_id>
DTXSID2041620

> <Canonical_QSARr>
OC(=O)CN1c2c(Cl)cccc2SC1=O

> <InChI_Code_QSARr>
InChI=1S/C9H6ClNO3S/c10-5-2-1-3-6-8(5)11(4-7(12)13)9(14)15-6/h1-3H,4H2,(H,12,13)

> <InChI Key_QSARr>
HYJSGOXICXYZGS-UHFFFAOYSA-N

> <Salt_Solvent>
?

> <LogVP>
-9.1249

$$$$
102246
  -INDIGO-08031723152D

 27 26  0  0  0  0  0  0  0  0999 V2000
   -0.0000   -0.0001    0.0000 C   0  0  0  0  0  0  0  0  0  0  0  0
    1.6000   -0.0001    0.0000 H   0  0  0  0  0  0  0  0  0  0  0  0
   -1.6001   -0.0001    0.0000 C   0  0  0  0  0  0  0  0  0  0  0  0
   -1.8089    1.5863    0.0000 H   0  0  0  0  0  0  0  0  0  0  0  0
   -2.8694    0.9740    0.0000 H   0  0  0  0  0  0  0  0  0  0  0  0
   -2.4000   -1.3856    0.0000 O   0  0  0  0  0  0  0  0  0  0  0  0
   -4.0001   -1.3856    0.0000 C   0  0  0  0  0  0  0  0  0  0  0  0
   -4.8000   -0.0001    0.0000 O   0  0  0  0  0  0  0  0  0  0  0  0
   -4.8000   -2.7713    0.0000 C   0  0  0  0  0  0  0  0  0  0  0  0
   -4.0001   -4.1569    0.0000 H   0  0  0  0  0  0  0  0  0  0  0  0
   -6.4001   -2.7713    0.0000 C   0  0  0  0  0  0  0  0  0  0  0  0
   -7.2000   -4.1569    0.0000 H   0  0  0  0  0  0  0  0  0  0  0  0
   -7.2000   -1.3856    0.0000 H   0  0  0  0  0  0  0  0  0  0  0  0
   -0.0000    1.6000    0.0000 C   0  0  0  0  0  0  0  0  0  0  0  0
    0.9740    2.8694    0.0000 H   0  0  0  0  0  0  0  0  0  0  0  0
    1.5863    1.8088    0.0000 H   0  0  0  0  0  0  0  0  0  0  0  0
   -1.2257    2.6285    0.0000 C   0  0  0  0  0  0  0  0  0  0  0  0
   -0.9478    4.2042    0.0000 H   0  0  0  0  0  0  0  0  0  0  0  0
   -2.4514    3.6570    0.0000 H   0  0  0  0  0  0  0  0  0  0  0  0
   -2.7291    2.0812    0.0000 H   0  0  0  0  0  0  0  0  0  0  0  0
    0.2779   -1.5757    0.0000 C   0  0  0  0  0  0  0  0  0  0  0  0
   -1.2481   -2.0568    0.0000 H   0  0  0  0  0  0  0  0  0  0  0  0
   -0.4610   -2.9949    0.0000 H   0  0  0  0  0  0  0  0  0  0  0  0
    1.7813   -2.1229    0.0000 C   0  0  0  0  0  0  0  0  0  0  0  0
    3.2849   -2.6702    0.0000 H   0  0  0  0  0  0  0  0  0  0  0  0
    2.0592   -3.6986    0.0000 H   0  0  0  0  0  0  0  0  0  0  0  0
    3.0070   -1.0944    0.0000 H   0  0  0  0  0  0  0  0  0  0  0  0
  1  2  1  0  0  0  0
  1  3  1  0  0  0  0
  3  4  1  0  0  0  0
  3  5  1  0  0  0  0
  3  6  1  0  0  0  0
  6  7  1  0  0  0  0
  7  8  2  0  0  0  0
  7  9  1  0  0  0  0
  9 10  1  0  0  0  0
  9 11  2  0  0  0  0
 11 12  1  0  0  0  0
 11 13  1  0  0  0  0
  1 14  1  0  0  0  0
 14 15  1  0  0  0  0
 14 16  1  0  0  0  0
 14 17  1  0  0  0  0
 17 18  1  0  0  0  0
 17 19  1  0  0  0  0
 17 20  1  0  0  0  0
  1 21  1  0  0  0  0
 21 22  1  0  0  0  0
 21 23  1  0  0  0  0
 21 24  1  0  0  0  0
 24 25  1  0  0  0  0
 24 26  1  0  0  0  0
 24 27  1  0  0  0  0
M  END
> <ChemID>
102246

> <source_casrn>
3953-10-4

> <CAS>
3953-10-4

> <SMILES>
CCC(COC(=O)C=C)CC

> <NAME>
2-ETHYLBUTYL ACRYLATE

> <preferred_name>
2-Ethylbutyl acrylate

> <iupac>
2-ethylbutyl prop-2-enoate

> <MPID>
26795

> <dsstox_substance_id>
DTXSID9063241

> <Canonical_QSARr>
CCC(COC(=O)C=C)CC

> <InChI_Code_QSARr>
InChI=1S/C9H16O2/c1-4-8(5-2)7-11-9(10)6-3/h6,8H,3-5,7H2,1-2H3

> <InChI Key_QSARr>
JGRXEBOFWPLEAV-UHFFFAOYSA-N

> <Salt_Solvent>
?

> <LogVP>
0.2304

$$$$
102253
  -INDIGO-08031723152D

 32 31  0  0  0  0  0  0  0  0999 V2000
   -4.7692   -2.2782    0.0000 Br  0  0  0  0  0  0  0  0  0  0  0  0
   -4.1570   -0.8000    0.0000 C   0  0  0  0  0  0  0  0  0  0  0  0
   -3.5446   -2.2782    0.0000 H   0  0  0  0  0  0  0  0  0  0  0  0
   -2.7713    0.0000    0.0000 C   0  0  0  0  0  0  0  0  0  0  0  0
   -3.3835    1.4782    0.0000 H   0  0  0  0  0  0  0  0  0  0  0  0
   -2.1589    1.4782    0.0000 H   0  0  0  0  0  0  0  0  0  0  0  0
   -1.3856   -0.8000    0.0000 C   0  0  0  0  0  0  0  0  0  0  0  0
   -0.7732   -2.2782    0.0000 H   0  0  0  0  0  0  0  0  0  0  0  0
   -1.9980   -2.2782    0.0000 H   0  0  0  0  0  0  0  0  0  0  0  0
    0.0001    0.0000    0.0000 C   0  0  0  0  0  0  0  0  0  0  0  0
   -0.6123    1.4782    0.0000 H   0  0  0  0  0  0  0  0  0  0  0  0
    0.6122    1.4782    0.0000 H   0  0  0  0  0  0  0  0  0  0  0  0
    1.3856   -0.8000    0.0000 C   0  0  0  0  0  0  0  0  0  0  0  0
    1.9979   -2.2782    0.0000 H   0  0  0  0  0  0  0  0  0  0  0  0
    0.7734   -2.2782    0.0000 H   0  0  0  0  0  0  0  0  0  0  0  0
    2.7713    0.0000    0.0000 C   0  0  0  0  0  0  0  0  0  0  0  0
    2.1589    1.4782    0.0000 H   0  0  0  0  0  0  0  0  0  0  0  0
    3.3836    1.4782    0.0000 H   0  0  0  0  0  0  0  0  0  0  0  0
    4.1570   -0.8000    0.0000 C   0  0  0  0  0  0  0  0  0  0  0  0
    4.7691   -2.2782    0.0000 H   0  0  0  0  0  0  0  0  0  0  0  0
    3.5446   -2.2782    0.0000 H   0  0  0  0  0  0  0  0  0  0  0  0
    5.5427    0.0000    0.0000 C   0  0  0  0  0  0  0  0  0  0  0  0
    4.9303    1.4782    0.0000 H   0  0  0  0  0  0  0  0  0  0  0  0
    6.1548    1.4782    0.0000 H   0  0  0  0  0  0  0  0  0  0  0  0
    6.9281   -0.8000    0.0000 C   0  0  0  0  0  0  0  0  0  0  0  0
    8.3138   -1.6000    0.0000 H   0  0  0  0  0  0  0  0  0  0  0  0
    8.3138    0.0000    0.0000 H   0  0  0  0  0  0  0  0  0  0  0  0
    6.9281   -2.4000    0.0000 H   0  0  0  0  0  0  0  0  0  0  0  0
   -5.5425    0.0000    0.0000 C   0  0  0  0  0  0  0  0  0  0  0  0
   -6.9282    0.8000    0.0000 H   0  0  0  0  0  0  0  0  0  0  0  0
   -6.9282   -0.8000    0.0000 H   0  0  0  0  0  0  0  0  0  0  0  0
   -5.5425    1.6000    0.0000 Br  0  0  0  0  0  0  0  0  0  0  0  0
  1  2  1  0  0  0  0
  2  3  1  0  0  0  0
  2  4  1  0  0  0  0
  4  5  1  0  0  0  0
  4  6  1  0  0  0  0
  4  7  1  0  0  0  0
  7  8  1  0  0  0  0
  7  9  1  0  0  0  0
  7 10  1  0  0  0  0
 10 11  1  0  0  0  0
 10 12  1  0  0  0  0
 10 13  1  0  0  0  0
 13 14  1  0  0  0  0
 13 15  1  0  0  0  0
 13 16  1  0  0  0  0
 16 17  1  0  0  0  0
 16 18  1  0  0  0  0
 16 19  1  0  0  0  0
 19 20  1  0  0  0  0
 19 21  1  0  0  0  0
 19 22  1  0  0  0  0
 22 23  1  0  0  0  0
 22 24  1  0  0  0  0
 22 25  1  0  0  0  0
 25 26  1  0  0  0  0
 25 27  1  0  0  0  0
 25 28  1  0  0  0  0
  2 29  1  0  0  0  0
 29 30  1  0  0  0  0
 29 31  1  0  0  0  0
 29 32  1  0  0  0  0
M  END
> <ChemID>
102253

> <source_casrn>
4101-68-2

> <CAS>
NOCAS_871054

> <SMILES>
CCCCCCCCC(Br)CBr

> <NAME>
1,2-DIBROMODECANE

> <preferred_name>
1,2-DIBROMODECANE

> <iupac>
C10H20Br2

> <MPID>
26799

> <dsstox_substance_id>
DTXSID40871054

> <Canonical_QSARr>
CCCCCCCCC(Br)CBr

> <InChI_Code_QSARr>
InChI=1S/C10H20Br2/c1-2-3-4-5-6-7-8-10(12)9-11/h10H,2-9H2,1H3

> <InChI Key_QSARr>
XBRBOTTWTQOCJH-UHFFFAOYSA-N

> <Salt_Solvent>
?

> <LogVP>
-2.4289

$$$$
102258
  -INDIGO-08031723152D

 37 36  0  0  0  0  0  0  0  0999 V2000
   -4.1569    0.8000    0.0000 C   0  0  0  0  0  0  0  0  0  0  0  0
   -2.7713    0.0000    0.0000 C   0  0  0  0  0  0  0  0  0  0  0  0
   -1.3857    0.8000    0.0000 C   0  0  0  0  0  0  0  0  0  0  0  0
   -0.0001    0.0000    0.0000 C   0  0  0  0  0  0  0  0  0  0  0  0
    1.3855    0.8000    0.0000 C   0  0  0  0  0  0  0  0  0  0  0  0
    2.7714    0.0000    0.0000 C   0  0  0  0  0  0  0  0  0  0  0  0
    4.1570    0.8000    0.0000 C   0  0  0  0  0  0  0  0  0  0  0  0
    5.5426    0.0000    0.0000 C   0  0  0  0  0  0  0  0  0  0  0  0
    6.9282   -0.8000    0.0000 F   0  0  0  0  0  0  0  0  0  0  0  0
    6.9282    0.8000    0.0000 F   0  0  0  0  0  0  0  0  0  0  0  0
    5.5426   -1.6000    0.0000 F   0  0  0  0  0  0  0  0  0  0  0  0
    4.7691    2.2782    0.0000 F   0  0  0  0  0  0  0  0  0  0  0  0
    3.5446    2.2782    0.0000 F   0  0  0  0  0  0  0  0  0  0  0  0
    2.1590   -1.4782    0.0000 F   0  0  0  0  0  0  0  0  0  0  0  0
    3.3835   -1.4782    0.0000 F   0  0  0  0  0  0  0  0  0  0  0  0
    1.9979    2.2782    0.0000 F   0  0  0  0  0  0  0  0  0  0  0  0
    0.7734    2.2782    0.0000 F   0  0  0  0  0  0  0  0  0  0  0  0
   -0.6122   -1.4782    0.0000 F   0  0  0  0  0  0  0  0  0  0  0  0
    0.6123   -1.4782    0.0000 F   0  0  0  0  0  0  0  0  0  0  0  0
   -0.7733    2.2782    0.0000 F   0  0  0  0  0  0  0  0  0  0  0  0
   -1.9981    2.2782    0.0000 F   0  0  0  0  0  0  0  0  0  0  0  0
   -3.3837   -1.4782    0.0000 F   0  0  0  0  0  0  0  0  0  0  0  0
   -2.1589   -1.4782    0.0000 F   0  0  0  0  0  0  0  0  0  0  0  0
   -5.5425    0.0000    0.0000 S   0  0  0  0  0  0  0  0  0  0  0  0
   -6.3426    1.3856    0.0000 O   0  0  0  0  0  0  0  0  0  0  0  0
   -6.9283   -0.8000    0.0000 N   0  0  0  0  0  0  0  0  0  0  0  0
   -6.9283   -2.4000    0.0000 H   0  0  0  0  0  0  0  0  0  0  0  0
   -8.3139    0.0000    0.0000 C   0  0  0  0  0  0  0  0  0  0  0  0
   -7.7015    1.4782    0.0000 H   0  0  0  0  0  0  0  0  0  0  0  0
   -8.9261    1.4782    0.0000 H   0  0  0  0  0  0  0  0  0  0  0  0
   -9.6995   -0.8000    0.0000 C   0  0  0  0  0  0  0  0  0  0  0  0
  -11.0851   -1.6000    0.0000 H   0  0  0  0  0  0  0  0  0  0  0  0
  -11.0851    0.0000    0.0000 H   0  0  0  0  0  0  0  0  0  0  0  0
   -9.6995   -2.4000    0.0000 H   0  0  0  0  0  0  0  0  0  0  0  0
   -4.7426   -1.3856    0.0000 O   0  0  0  0  0  0  0  0  0  0  0  0
   -3.5447    2.2782    0.0000 F   0  0  0  0  0  0  0  0  0  0  0  0
   -4.7693    2.2782    0.0000 F   0  0  0  0  0  0  0  0  0  0  0  0
  1  2  1  0  0  0  0
  2  3  1  0  0  0  0
  3  4  1  0  0  0  0
  4  5  1  0  0  0  0
  5  6  1  0  0  0  0
  6  7  1  0  0  0  0
  7  8  1  0  0  0  0
  8  9  1  0  0  0  0
  8 10  1  0  0  0  0
  8 11  1  0  0  0  0
  7 12  1  0  0  0  0
  7 13  1  0  0  0  0
  6 14  1  0  0  0  0
  6 15  1  0  0  0  0
  5 16  1  0  0  0  0
  5 17  1  0  0  0  0
  4 18  1  0  0  0  0
  4 19  1  0  0  0  0
  3 20  1  0  0  0  0
  3 21  1  0  0  0  0
  2 22  1  0  0  0  0
  2 23  1  0  0  0  0
  1 24  1  0  0  0  0
 24 25  2  0  0  0  0
 24 26  1  0  0  0  0
 26 27  1  0  0  0  0
 26 28  1  0  0  0  0
 28 29  1  0  0  0  0
 28 30  1  0  0  0  0
 28 31  1  0  0  0  0
 31 32  1  0  0  0  0
 31 33  1  0  0  0  0
 31 34  1  0  0  0  0
 24 35  2  0  0  0  0
  1 36  1  0  0  0  0
  1 37  1  0  0  0  0
M  END
> <ChemID>
102258

> <source_casrn>
4151-50-2

> <CAS>
4151-50-2

> <SMILES>
CCNS(=O)(=O)C(F)(F)C(F)(F)C(F)(F)C(F)(F)C(F)(F)C(F)(F)C(F)(F)C(F)(F)F

> <NAME>
SULFLURAMID

> <preferred_name>
Sulfluramid

> <iupac>
N-ethyl-1,1,2,2,3,3,4,4,5,5,6,6,7,7,8,8,8-heptadecafluorooctane-1-sulfonamide

> <MPID>
26803

> <dsstox_substance_id>
DTXSID1032646

> <Canonical_QSARr>
CCNS(=O)(=O)C(F)(F)C(F)(F)C(F)(F)C(F)(F)C(F)(F)C(F)(F)C(F)(F)C(F)(F)F

> <InChI_Code_QSARr>
InChI=1S/C10H6F17NO2S/c1-2-28-31(29,30)10(26,27)8(21,22)6(17,18)4(13,14)3(11,12)5(15,16)7(19,20)9(23,24)25/h28H,2H2,1H3

> <InChI Key_QSARr>
CCEKAJIANROZEO-UHFFFAOYSA-N

> <Salt_Solvent>
?

> <LogVP>
-6.3686

$$$$
102264
  -INDIGO-08031723152D

 23 22  0  0  0  0  0  0  0  0999 V2000
    0.0001    0.0000    0.0000 C   0  0  0  0  0  0  0  0  0  0  0  0
    0.6122   -1.4782    0.0000 H   0  0  0  0  0  0  0  0  0  0  0  0
   -0.6122   -1.4782    0.0000 H   0  0  0  0  0  0  0  0  0  0  0  0
   -1.3856    0.8000    0.0000 C   0  0  0  0  0  0  0  0  0  0  0  0
   -1.9979    2.2782    0.0000 H   0  0  0  0  0  0  0  0  0  0  0  0
   -0.7734    2.2782    0.0000 H   0  0  0  0  0  0  0  0  0  0  0  0
   -2.7712    0.0000    0.0000 C   0  0  0  0  0  0  0  0  0  0  0  0
   -2.1589   -1.4782    0.0000 H   0  0  0  0  0  0  0  0  0  0  0  0
   -3.3836   -1.4782    0.0000 H   0  0  0  0  0  0  0  0  0  0  0  0
   -4.1569    0.8000    0.0000 C   0  0  0  0  0  0  0  0  0  0  0  0
   -5.5426    1.6000    0.0000 H   0  0  0  0  0  0  0  0  0  0  0  0
   -5.5426    0.0000    0.0000 H   0  0  0  0  0  0  0  0  0  0  0  0
   -4.1569    2.4000    0.0000 I   0  0  0  0  0  0  0  0  0  0  0  0
    1.3856    0.8000    0.0000 C   0  0  0  0  0  0  0  0  0  0  0  0
    0.7734    2.2782    0.0000 H   0  0  0  0  0  0  0  0  0  0  0  0
    1.9979    2.2782    0.0000 H   0  0  0  0  0  0  0  0  0  0  0  0
    2.7712    0.0000    0.0000 C   0  0  0  0  0  0  0  0  0  0  0  0
    3.3836   -1.4782    0.0000 H   0  0  0  0  0  0  0  0  0  0  0  0
    2.1589   -1.4782    0.0000 H   0  0  0  0  0  0  0  0  0  0  0  0
    4.1569    0.8000    0.0000 C   0  0  0  0  0  0  0  0  0  0  0  0
    5.5426    1.6000    0.0000 H   0  0  0  0  0  0  0  0  0  0  0  0
    5.5426    0.0000    0.0000 H   0  0  0  0  0  0  0  0  0  0  0  0
    4.1569    2.4000    0.0000 H   0  0  0  0  0  0  0  0  0  0  0  0
  1  2  1  0  0  0  0
  1  3  1  0  0  0  0
  1  4  1  0  0  0  0
  4  5  1  0  0  0  0
  4  6  1  0  0  0  0
  4  7  1  0  0  0  0
  7  8  1  0  0  0  0
  7  9  1  0  0  0  0
  7 10  1  0  0  0  0
 10 11  1  0  0  0  0
 10 12  1  0  0  0  0
 10 13  1  0  0  0  0
  1 14  1  0  0  0  0
 14 15  1  0  0  0  0
 14 16  1  0  0  0  0
 14 17  1  0  0  0  0
 17 18  1  0  0  0  0
 17 19  1  0  0  0  0
 17 20  1  0  0  0  0
 20 21  1  0  0  0  0
 20 22  1  0  0  0  0
 20 23  1  0  0  0  0
M  END
> <ChemID>
102264

> <source_casrn>
4282-40-0

> <CAS>
4282-40-0

> <SMILES>
CCCCCCCI

> <NAME>
1-IODOHEPTANE

> <preferred_name>
Heptane, 1-iodo-

> <iupac>
1-Iodoheptane

> <MPID>
26809

> <dsstox_substance_id>
DTXSID2063393

> <Canonical_QSARr>
CCCCCCCI

> <InChI_Code_QSARr>
InChI=1S/C7H15I/c1-2-3-4-5-6-7-8/h2-7H2,1H3

> <InChI Key_QSARr>
LMHCYRULPLGEEZ-UHFFFAOYSA-N

> <Salt_Solvent>
?

> <LogVP>
-0.3507

$$$$
102268
  -INDIGO-08031723152D

 36 36  0  0  0  0  0  0  0  0999 V2000
    0.0001    0.0000    0.0000 C   0  0  0  0  0  0  0  0  0  0  0  0
    1.2258    1.0285    0.0000 H   0  0  0  0  0  0  0  0  0  0  0  0
    1.2258   -1.0285    0.0000 C   0  0  0  0  0  0  0  0  0  0  0  0
    1.5719   -2.5906    0.0000 H   0  0  0  0  0  0  0  0  0  0  0  0
    0.3661   -2.3779    0.0000 H   0  0  0  0  0  0  0  0  0  0  0  0
    2.7291   -0.4813    0.0000 C   0  0  0  0  0  0  0  0  0  0  0  0
    2.3829    1.0808    0.0000 H   0  0  0  0  0  0  0  0  0  0  0  0
    3.5888    0.8682    0.0000 H   0  0  0  0  0  0  0  0  0  0  0  0
    3.9547   -1.5097    0.0000 C   0  0  0  0  0  0  0  0  0  0  0  0
    4.3011   -3.0718    0.0000 H   0  0  0  0  0  0  0  0  0  0  0  0
    3.0953   -2.8592    0.0000 H   0  0  0  0  0  0  0  0  0  0  0  0
    5.4583   -0.9625    0.0000 C   0  0  0  0  0  0  0  0  0  0  0  0
    5.1121    0.5996    0.0000 H   0  0  0  0  0  0  0  0  0  0  0  0
    6.3180    0.3870    0.0000 H   0  0  0  0  0  0  0  0  0  0  0  0
    6.6840   -1.9909    0.0000 C   0  0  0  0  0  0  0  0  0  0  0  0
    7.0303   -3.5530    0.0000 H   0  0  0  0  0  0  0  0  0  0  0  0
    5.8243   -3.3404    0.0000 H   0  0  0  0  0  0  0  0  0  0  0  0
    8.1875   -1.4437    0.0000 C   0  0  0  0  0  0  0  0  0  0  0  0
    9.6910   -0.8965    0.0000 H   0  0  0  0  0  0  0  0  0  0  0  0
    9.4132   -2.4722    0.0000 H   0  0  0  0  0  0  0  0  0  0  0  0
    8.4654    0.1320    0.0000 H   0  0  0  0  0  0  0  0  0  0  0  0
   -0.7999    1.3856    0.0000 C   0  0  0  0  0  0  0  0  0  0  0  0
    0.7036    1.9329    0.0000 H   0  0  0  0  0  0  0  0  0  0  0  0
   -1.0778    2.9613    0.0000 H   0  0  0  0  0  0  0  0  0  0  0  0
   -2.4000    1.3856    0.0000 C   0  0  0  0  0  0  0  0  0  0  0  0
   -2.1221    2.9613    0.0000 H   0  0  0  0  0  0  0  0  0  0  0  0
   -3.9035    1.9329    0.0000 H   0  0  0  0  0  0  0  0  0  0  0  0
   -3.2000    0.0000    0.0000 C   0  0  0  0  0  0  0  0  0  0  0  0
   -4.4257    1.0285    0.0000 H   0  0  0  0  0  0  0  0  0  0  0  0
   -4.4257   -1.0285    0.0000 H   0  0  0  0  0  0  0  0  0  0  0  0
   -2.4000   -1.3856    0.0000 C   0  0  0  0  0  0  0  0  0  0  0  0
   -3.9035   -1.9328    0.0000 H   0  0  0  0  0  0  0  0  0  0  0  0
   -2.1221   -2.9613    0.0000 H   0  0  0  0  0  0  0  0  0  0  0  0
   -0.7999   -1.3856    0.0000 C   0  0  0  0  0  0  0  0  0  0  0  0
   -1.0778   -2.9613    0.0000 H   0  0  0  0  0  0  0  0  0  0  0  0
    0.7758   -1.6635    0.0000 H   0  0  0  0  0  0  0  0  0  0  0  0
  1  2  1  0  0  0  0
  1  3  1  0  0  0  0
  3  4  1  0  0  0  0
  3  5  1  0  0  0  0
  3  6  1  0  0  0  0
  6  7  1  0  0  0  0
  6  8  1  0  0  0  0
  6  9  1  0  0  0  0
  9 10  1  0  0  0  0
  9 11  1  0  0  0  0
  9 12  1  0  0  0  0
 12 13  1  0  0  0  0
 12 14  1  0  0  0  0
 12 15  1  0  0  0  0
 15 16  1  0  0  0  0
 15 17  1  0  0  0  0
 15 18  1  0  0  0  0
 18 19  1  0  0  0  0
 18 20  1  0  0  0  0
 18 21  1  0  0  0  0
  1 22  1  0  0  0  0
 22 23  1  0  0  0  0
 22 24  1  0  0  0  0
 22 25  1  0  0  0  0
 25 26  1  0  0  0  0
 25 27  1  0  0  0  0
 25 28  1  0  0  0  0
 28 29  1  0  0  0  0
 28 30  1  0  0  0  0
 28 31  1  0  0  0  0
 31 32  1  0  0  0  0
 31 33  1  0  0  0  0
 31 34  1  0  0  0  0
 34  1  1  0  0  0  0
 34 35  1  0  0  0  0
 34 36  1  0  0  0  0
M  END
> <ChemID>
102268

> <source_casrn>
4292-75-5

> <CAS>
4292-75-5

> <SMILES>
CCCCCCC1CCCCC1

> <NAME>
1-CYCLOHEXYLHEXANE

> <preferred_name>
Cyclohexane, hexyl-

> <iupac>
Hexylcyclohexane

> <MPID>
26813

> <dsstox_substance_id>
DTXSID7063398

> <Canonical_QSARr>
CCCCCCC1CCCCC1

> <InChI_Code_QSARr>
InChI=1S/C12H24/c1-2-3-4-6-9-12-10-7-5-8-11-12/h12H,2-11H2,1H3

> <InChI Key_QSARr>
QHWAQXOSHHKCFK-UHFFFAOYSA-N

> <Salt_Solvent>
?

> <LogVP>
-0.9431

$$$$
102275
  -INDIGO-08031723152D

 17 16  0  0  0  0  0  0  0  0999 V2000
    1.6000   -0.0000    0.0000 C   0  0  0  0  0  0  0  0  0  0  0  0
    2.8694   -0.9740    0.0000 H   0  0  0  0  0  0  0  0  0  0  0  0
    1.8088   -1.5863    0.0000 H   0  0  0  0  0  0  0  0  0  0  0  0
   -0.0000    0.0000    0.0000 C   0  0  0  0  0  0  0  0  0  0  0  0
   -0.0000   -1.6000    0.0000 H   0  0  0  0  0  0  0  0  0  0  0  0
   -1.6000    0.0000    0.0000 C   0  0  0  0  0  0  0  0  0  0  0  0
   -1.6000    1.6000    0.0000 H   0  0  0  0  0  0  0  0  0  0  0  0
   -3.2001    0.0000    0.0000 C   0  0  0  0  0  0  0  0  0  0  0  0
   -4.8000    0.0000    0.0000 H   0  0  0  0  0  0  0  0  0  0  0  0
   -4.0000    1.3857    0.0000 H   0  0  0  0  0  0  0  0  0  0  0  0
   -4.0000   -1.3857    0.0000 H   0  0  0  0  0  0  0  0  0  0  0  0
   -1.6000   -1.6000    0.0000 O   0  0  0  0  0  0  0  0  0  0  0  0
   -2.9856   -2.4000    0.0000 H   0  0  0  0  0  0  0  0  0  0  0  0
   -0.0000    1.6000    0.0000 O   0  0  0  0  0  0  0  0  0  0  0  0
    1.3856    2.4000    0.0000 H   0  0  0  0  0  0  0  0  0  0  0  0
    2.4001    1.3857    0.0000 O   0  0  0  0  0  0  0  0  0  0  0  0
    4.0000    1.3857    0.0000 H   0  0  0  0  0  0  0  0  0  0  0  0
  1  2  1  0  0  0  0
  1  3  1  0  0  0  0
  1  4  1  0  0  0  0
  4  5  1  0  0  0  0
  4  6  1  0  0  0  0
  6  7  1  0  0  0  0
  6  8  1  0  0  0  0
  8  9  1  0  0  0  0
  8 10  1  0  0  0  0
  8 11  1  0  0  0  0
  6 12  1  0  0  0  0
 12 13  1  0  0  0  0
  4 14  1  0  0  0  0
 14 15  1  0  0  0  0
  1 16  1  0  0  0  0
 16 17  1  0  0  0  0
M  END
> <ChemID>
102275

> <source_casrn>
4435-50-1

> <CAS>
NOCAS_871078

> <SMILES>
CC(O)C(O)CO

> <NAME>
1,2,3-TRIHYDROXYBUTANE

> <preferred_name>


> <iupac>


> <MPID>
26817

> <dsstox_substance_id>
DTXSID80871078

> <Canonical_QSARr>
CC(O)C(O)CO

> <InChI_Code_QSARr>
InChI=1S/C4H10O3/c1-3(6)4(7)2-5/h3-7H,2H2,1H3

> <InChI Key_QSARr>
YAXKTBLXMTYWDQ-UHFFFAOYSA-N

> <Salt_Solvent>
?

> <LogVP>
-2.4734

$$$$
102280
  -INDIGO-08031723152D

 24 24  0  0  0  0  0  0  0  0999 V2000
    0.0000    0.0000    0.0000 C   0  0  0  0  0  0  0  0  0  0  0  0
    1.0706    1.1891    0.0000 C   0  0  0  0  0  0  0  0  0  0  0  0
    0.1759    2.5155    0.0000 H   0  0  0  0  0  0  0  0  0  0  0  0
    1.8706    2.5747    0.0000 H   0  0  0  0  0  0  0  0  0  0  0  0
    2.5323    0.5382    0.0000 C   0  0  0  0  0  0  0  0  0  0  0  0
    3.0267    2.0600    0.0000 H   0  0  0  0  0  0  0  0  0  0  0  0
    4.1167    0.7609    0.0000 C   0  0  0  0  0  0  0  0  0  0  0  0
    5.7011    0.9836    0.0000 H   0  0  0  0  0  0  0  0  0  0  0  0
    4.7161    2.2444    0.0000 H   0  0  0  0  0  0  0  0  0  0  0  0
    5.1017   -0.4999    0.0000 H   0  0  0  0  0  0  0  0  0  0  0  0
    2.3651   -1.0530    0.0000 C   0  0  0  0  0  0  0  0  0  0  0  0
    3.9650   -1.0530    0.0000 H   0  0  0  0  0  0  0  0  0  0  0  0
    2.5323   -2.6442    0.0000 H   0  0  0  0  0  0  0  0  0  0  0  0
    0.8000   -1.3856    0.0000 C   0  0  0  0  0  0  0  0  0  0  0  0
    1.2944   -2.9073    0.0000 H   0  0  0  0  0  0  0  0  0  0  0  0
   -0.3509   -2.4971    0.0000 H   0  0  0  0  0  0  0  0  0  0  0  0
   -1.2945   -0.9405    0.0000 C   0  0  0  0  0  0  0  0  0  0  0  0
   -2.5889   -1.8809    0.0000 H   0  0  0  0  0  0  0  0  0  0  0  0
   -2.7561   -0.2897    0.0000 H   0  0  0  0  0  0  0  0  0  0  0  0
   -1.4060   -2.5366    0.0000 H   0  0  0  0  0  0  0  0  0  0  0  0
   -1.0706    1.1891    0.0000 C   0  0  0  0  0  0  0  0  0  0  0  0
   -2.1412    2.3781    0.0000 H   0  0  0  0  0  0  0  0  0  0  0  0
   -2.6357    0.8564    0.0000 H   0  0  0  0  0  0  0  0  0  0  0  0
   -0.8480    2.7735    0.0000 H   0  0  0  0  0  0  0  0  0  0  0  0
  1  2  1  0  0  0  0
  2  3  1  0  0  0  0
  2  4  1  0  0  0  0
  2  5  1  0  0  0  0
  5  6  1  0  0  0  0
  5  7  1  0  0  0  0
  7  8  1  0  0  0  0
  7  9  1  0  0  0  0
  7 10  1  0  0  0  0
  5 11  1  0  0  0  0
 11 12  1  0  0  0  0
 11 13  1  0  0  0  0
 11 14  1  0  0  0  0
 14  1  1  0  0  0  0
 14 15  1  0  0  0  0
 14 16  1  0  0  0  0
  1 17  1  0  0  0  0
 17 18  1  0  0  0  0
 17 19  1  0  0  0  0
 17 20  1  0  0  0  0
  1 21  1  0  0  0  0
 21 22  1  0  0  0  0
 21 23  1  0  0  0  0
 21 24  1  0  0  0  0
M  END
> <ChemID>
102280

> <source_casrn>
4516-69-2

> <CAS>
4516-69-2

> <SMILES>
CC1CC(C)(C)CC1

> <NAME>
1,1,3-TRIMETHYLCYCLOPENTANE

> <preferred_name>


> <iupac>


> <MPID>
26821

> <dsstox_substance_id>
DTXSID30871083

> <Canonical_QSARr>
CC1CC(C)(C)CC1

> <InChI_Code_QSARr>
InChI=1S/C8H16/c1-7-4-5-8(2,3)6-7/h7H,4-6H2,1-3H3

> <InChI Key_QSARr>
OBKHYUIZSOIEPG-UHFFFAOYSA-N

> <Salt_Solvent>
?

> <LogVP>
1.0461

$$$$
102287
  -INDIGO-08031723152D

 50 49  0  0  0  0  0  0  0  0999 V2000
    9.6995   -0.8000    0.0000 C   0  0  0  0  0  0  0  0  0  0  0  0
   11.0851   -1.6000    0.0000 H   0  0  0  0  0  0  0  0  0  0  0  0
   11.0851    0.0000    0.0000 H   0  0  0  0  0  0  0  0  0  0  0  0
    8.3138    0.0000    0.0000 C   0  0  0  0  0  0  0  0  0  0  0  0
    8.9260    1.4782    0.0000 H   0  0  0  0  0  0  0  0  0  0  0  0
    7.7017    1.4782    0.0000 H   0  0  0  0  0  0  0  0  0  0  0  0
    6.9282   -0.8000    0.0000 C   0  0  0  0  0  0  0  0  0  0  0  0
    6.3161   -2.2782    0.0000 H   0  0  0  0  0  0  0  0  0  0  0  0
    7.5403   -2.2782    0.0000 H   0  0  0  0  0  0  0  0  0  0  0  0
    5.5426    0.0000    0.0000 C   0  0  0  0  0  0  0  0  0  0  0  0
    6.1547    1.4782    0.0000 H   0  0  0  0  0  0  0  0  0  0  0  0
    4.9304    1.4782    0.0000 H   0  0  0  0  0  0  0  0  0  0  0  0
    4.1569   -0.8000    0.0000 C   0  0  0  0  0  0  0  0  0  0  0  0
    3.5448   -2.2782    0.0000 H   0  0  0  0  0  0  0  0  0  0  0  0
    4.7690   -2.2782    0.0000 H   0  0  0  0  0  0  0  0  0  0  0  0
    2.7713    0.0000    0.0000 C   0  0  0  0  0  0  0  0  0  0  0  0
    3.3834    1.4782    0.0000 H   0  0  0  0  0  0  0  0  0  0  0  0
    2.1592    1.4782    0.0000 H   0  0  0  0  0  0  0  0  0  0  0  0
    1.3856   -0.8000    0.0000 C   0  0  0  0  0  0  0  0  0  0  0  0
    0.7735   -2.2782    0.0000 H   0  0  0  0  0  0  0  0  0  0  0  0
    1.9978   -2.2782    0.0000 H   0  0  0  0  0  0  0  0  0  0  0  0
    0.0000    0.0000    0.0000 C   0  0  0  0  0  0  0  0  0  0  0  0
    0.6121    1.4782    0.0000 H   0  0  0  0  0  0  0  0  0  0  0  0
   -0.6121    1.4782    0.0000 H   0  0  0  0  0  0  0  0  0  0  0  0
   -1.3856   -0.8000    0.0000 C   0  0  0  0  0  0  0  0  0  0  0  0
   -1.9978   -2.2782    0.0000 H   0  0  0  0  0  0  0  0  0  0  0  0
   -0.7735   -2.2782    0.0000 H   0  0  0  0  0  0  0  0  0  0  0  0
   -2.7713    0.0000    0.0000 C   0  0  0  0  0  0  0  0  0  0  0  0
   -2.1592    1.4782    0.0000 H   0  0  0  0  0  0  0  0  0  0  0  0
   -3.3834    1.4782    0.0000 H   0  0  0  0  0  0  0  0  0  0  0  0
   -4.1569   -0.8000    0.0000 C   0  0  0  0  0  0  0  0  0  0  0  0
   -4.7690   -2.2782    0.0000 H   0  0  0  0  0  0  0  0  0  0  0  0
   -3.5448   -2.2782    0.0000 H   0  0  0  0  0  0  0  0  0  0  0  0
   -5.5426    0.0000    0.0000 C   0  0  0  0  0  0  0  0  0  0  0  0
   -4.9304    1.4782    0.0000 H   0  0  0  0  0  0  0  0  0  0  0  0
   -6.1547    1.4782    0.0000 H   0  0  0  0  0  0  0  0  0  0  0  0
   -6.9282   -0.8000    0.0000 C   0  0  0  0  0  0  0  0  0  0  0  0
   -7.5403   -2.2782    0.0000 H   0  0  0  0  0  0  0  0  0  0  0  0
   -6.3161   -2.2782    0.0000 H   0  0  0  0  0  0  0  0  0  0  0  0
   -8.3138    0.0000    0.0000 C   0  0  0  0  0  0  0  0  0  0  0  0
   -7.7017    1.4782    0.0000 H   0  0  0  0  0  0  0  0  0  0  0  0
   -8.9260    1.4782    0.0000 H   0  0  0  0  0  0  0  0  0  0  0  0
   -9.6995   -0.8000    0.0000 C   0  0  0  0  0  0  0  0  0  0  0  0
  -10.3116   -2.2782    0.0000 H   0  0  0  0  0  0  0  0  0  0  0  0
   -9.0874   -2.2782    0.0000 H   0  0  0  0  0  0  0  0  0  0  0  0
  -11.0851    0.0000    0.0000 C   0  0  0  0  0  0  0  0  0  0  0  0
  -12.4708    0.8000    0.0000 H   0  0  0  0  0  0  0  0  0  0  0  0
  -12.4708   -0.8000    0.0000 H   0  0  0  0  0  0  0  0  0  0  0  0
  -11.0851    1.6000    0.0000 H   0  0  0  0  0  0  0  0  0  0  0  0
    9.6995   -2.4000    0.0000 Cl  0  0  0  0  0  0  0  0  0  0  0  0
  1  2  1  0  0  0  0
  1  3  1  0  0  0  0
  1  4  1  0  0  0  0
  4  5  1  0  0  0  0
  4  6  1  0  0  0  0
  4  7  1  0  0  0  0
  7  8  1  0  0  0  0
  7  9  1  0  0  0  0
  7 10  1  0  0  0  0
 10 11  1  0  0  0  0
 10 12  1  0  0  0  0
 10 13  1  0  0  0  0
 13 14  1  0  0  0  0
 13 15  1  0  0  0  0
 13 16  1  0  0  0  0
 16 17  1  0  0  0  0
 16 18  1  0  0  0  0
 16 19  1  0  0  0  0
 19 20  1  0  0  0  0
 19 21  1  0  0  0  0
 19 22  1  0  0  0  0
 22 23  1  0  0  0  0
 22 24  1  0  0  0  0
 22 25  1  0  0  0  0
 25 26  1  0  0  0  0
 25 27  1  0  0  0  0
 25 28  1  0  0  0  0
 28 29  1  0  0  0  0
 28 30  1  0  0  0  0
 28 31  1  0  0  0  0
 31 32  1  0  0  0  0
 31 33  1  0  0  0  0
 31 34  1  0  0  0  0
 34 35  1  0  0  0  0
 34 36  1  0  0  0  0
 34 37  1  0  0  0  0
 37 38  1  0  0  0  0
 37 39  1  0  0  0  0
 37 40  1  0  0  0  0
 40 41  1  0  0  0  0
 40 42  1  0  0  0  0
 40 43  1  0  0  0  0
 43 44  1  0  0  0  0
 43 45  1  0  0  0  0
 43 46  1  0  0  0  0
 46 47  1  0  0  0  0
 46 48  1  0  0  0  0
 46 49  1  0  0  0  0
  1 50  1  0  0  0  0
M  END
> <ChemID>
102287

> <source_casrn>
4860-03-1

> <CAS>
4860-03-1

> <SMILES>
CCCCCCCCCCCCCCCCCl

> <NAME>
1-CHLOROHEXADECANE

> <preferred_name>
1-Chlorohexadecane

> <iupac>
C16H33Cl

> <MPID>
26826

> <dsstox_substance_id>
DTXSID3027580

> <Canonical_QSARr>
CCCCCCCCCCCCCCCCCl

> <InChI_Code_QSARr>
InChI=1S/C16H33Cl/c1-2-3-4-5-6-7-8-9-10-11-12-13-14-15-16-17/h2-16H2,1H3

> <InChI Key_QSARr>
CLWAXFZCVYJLLM-UHFFFAOYSA-N

> <Salt_Solvent>
?

> <LogVP>
-4.2076

$$$$
102293
  -INDIGO-08031723152D

 18 19  0  0  0  0  0  0  0  0999 V2000
    0.0000   -0.0000    0.0000 N   0  0  0  0  0  0  0  0  0  0  0  0
    1.3857    0.8000    0.0000 C   0  0  0  0  0  0  0  0  0  0  0  0
    1.3857    2.4000    0.0000 N   0  0  0  0  0  0  0  0  0  0  0  0
    2.7713    3.2000    0.0000 H   0  0  0  0  0  0  0  0  0  0  0  0
    0.0000    3.2000    0.0000 H   0  0  0  0  0  0  0  0  0  0  0  0
    2.7713   -0.0000    0.0000 C   0  0  0  0  0  0  0  0  0  0  0  0
    4.2930    0.4945    0.0000 N   0  0  0  0  0  0  0  0  0  0  0  0
    5.2334   -0.8000    0.0000 C   0  0  0  0  0  0  0  0  0  0  0  0
    6.8334   -0.8000    0.0000 H   0  0  0  0  0  0  0  0  0  0  0  0
    4.2930   -2.0944    0.0000 N   0  0  0  0  0  0  0  0  0  0  0  0
    2.7713   -1.6000    0.0000 C   0  0  0  0  0  0  0  0  0  0  0  0
    1.3857   -2.4000    0.0000 N   0  0  0  0  0  0  0  0  0  0  0  0
    0.0000   -1.6000    0.0000 C   0  0  0  0  0  0  0  0  0  0  0  0
   -1.3856   -2.4000    0.0000 H   0  0  0  0  0  0  0  0  0  0  0  0
   -1.3856    0.8000    0.0000 C   0  0  0  0  0  0  0  0  0  0  0  0
   -2.7713    1.6000    0.0000 H   0  0  0  0  0  0  0  0  0  0  0  0
   -2.7713   -0.0000    0.0000 H   0  0  0  0  0  0  0  0  0  0  0  0
   -1.3856    2.4000    0.0000 H   0  0  0  0  0  0  0  0  0  0  0  0
  1  2  1  0  0  0  0
  2  3  1  0  0  0  0
  3  4  1  0  0  0  0
  3  5  1  0  0  0  0
  2  6  2  0  0  0  0
  6  7  1  0  0  0  0
  7  8  2  0  0  0  0
  8  9  1  0  0  0  0
  8 10  1  0  0  0  0
 10 11  2  0  0  0  0
 11  6  1  0  0  0  0
 11 12  1  0  0  0  0
 12 13  2  0  0  0  0
 13  1  1  0  0  0  0
 13 14  1  0  0  0  0
  1 15  1  0  0  0  0
 15 16  1  0  0  0  0
 15 17  1  0  0  0  0
 15 18  1  0  0  0  0
M  END
> <ChemID>
102293

> <source_casrn>
5142-22-3

> <CAS>
5142-22-3

> <SMILES>
C[n]1:c:[n]:c2:[n]:c:[n]:c-2:c:1N

> <NAME>
1-Methyladenine

> <preferred_name>
1-Methyladenine

> <iupac>
1-methylpurin-6-amine

> <MPID>
26832

> <dsstox_substance_id>
DTXSID20199405

> <Canonical_QSARr>
C[n]1c[n]c2[n]c[n]c2c1N

> <InChI_Code_QSARr>
InChI=1S/C6H7N5/c1-11-3-10-6-4(5(11)7)8-2-9-6/h2-3H,7H2,1H3

> <InChI Key_QSARr>
HPZMWTNATZPBIH-UHFFFAOYSA-N

> <Salt_Solvent>
?

> <LogVP>
-11.7959

$$$$
102299
  -INDIGO-08031723152D

 31 32  0  0  0  0  0  0  0  0999 V2000
   -1.6001    2.7713    0.0000 O   0  0  0  0  0  0  0  0  0  0  0  0
    0.0001    2.7713    0.0000 C   0  0  0  0  0  0  0  0  0  0  0  0
    0.8000    4.1570    0.0000 C   0  0  0  0  0  0  0  0  0  0  0  0
    1.6000    5.5426    0.0000 H   0  0  0  0  0  0  0  0  0  0  0  0
    0.0001    5.5426    0.0000 H   0  0  0  0  0  0  0  0  0  0  0  0
    2.4000    4.1570    0.0000 H   0  0  0  0  0  0  0  0  0  0  0  0
    0.8000    1.3856    0.0000 C   0  0  0  0  0  0  0  0  0  0  0  0
    2.4000    1.3857    0.0000 C   0  0  0  0  0  0  0  0  0  0  0  0
    3.2000    2.7713    0.0000 O   0  0  0  0  0  0  0  0  0  0  0  0
    3.2000    0.0000    0.0000 N   0  0  0  0  0  0  0  0  0  0  0  0
    2.4000   -1.3857    0.0000 H   0  0  0  0  0  0  0  0  0  0  0  0
    4.7999    0.0000    0.0000 C   0  0  0  0  0  0  0  0  0  0  0  0
    5.5999   -1.3856    0.0000 C   0  0  0  0  0  0  0  0  0  0  0  0
    4.7999   -2.7713    0.0000 H   0  0  0  0  0  0  0  0  0  0  0  0
    7.2001   -1.3856    0.0000 C   0  0  0  0  0  0  0  0  0  0  0  0
    8.0000   -2.7713    0.0000 H   0  0  0  0  0  0  0  0  0  0  0  0
    8.0000    0.0000    0.0000 C   0  0  0  0  0  0  0  0  0  0  0  0
    9.6000    0.0000    0.0000 H   0  0  0  0  0  0  0  0  0  0  0  0
    7.2001    1.3857    0.0000 C   0  0  0  0  0  0  0  0  0  0  0  0
    8.0000    2.7713    0.0000 H   0  0  0  0  0  0  0  0  0  0  0  0
    5.5999    1.3857    0.0000 C   0  0  0  0  0  0  0  0  0  0  0  0
    4.7999    2.7713    0.0000 H   0  0  0  0  0  0  0  0  0  0  0  0
    0.0001    0.0000    0.0000 S   0  0  0  0  0  0  0  0  0  0  0  0
    1.5036   -0.5473    0.0000 O   0  0  0  0  0  0  0  0  0  0  0  0
   -0.2778   -1.5757    0.0000 O   0  0  0  0  0  0  0  0  0  0  0  0
   -1.6001    0.0000    0.0000 C   0  0  0  0  0  0  0  0  0  0  0  0
   -1.3222   -1.5757    0.0000 H   0  0  0  0  0  0  0  0  0  0  0  0
   -3.1036   -0.5473    0.0000 H   0  0  0  0  0  0  0  0  0  0  0  0
   -2.4001    1.3856    0.0000 C   0  0  0  0  0  0  0  0  0  0  0  0
   -3.6257    0.3572    0.0000 H   0  0  0  0  0  0  0  0  0  0  0  0
   -3.6257    2.4140    0.0000 H   0  0  0  0  0  0  0  0  0  0  0  0
  1  2  1  0  0  0  0
  2  3  1  0  0  0  0
  3  4  1  0  0  0  0
  3  5  1  0  0  0  0
  3  6  1  0  0  0  0
  2  7  2  0  0  0  0
  7  8  1  0  0  0  0
  8  9  2  0  0  0  0
  8 10  1  0  0  0  0
 10 11  1  0  0  0  0
 10 12  1  0  0  0  0
 12 13  1  0  0  0  0
 13 14  1  0  0  0  0
 13 15  2  0  0  0  0
 15 16  1  0  0  0  0
 15 17  1  0  0  0  0
 17 18  1  0  0  0  0
 17 19  2  0  0  0  0
 19 20  1  0  0  0  0
 19 21  1  0  0  0  0
 21 12  2  0  0  0  0
 21 22  1  0  0  0  0
  7 23  1  0  0  0  0
 23 24  2  0  0  0  0
 23 25  2  0  0  0  0
 23 26  1  0  0  0  0
 26 27  1  0  0  0  0
 26 28  1  0  0  0  0
 26 29  1  0  0  0  0
 29  1  1  0  0  0  0
 29 30  1  0  0  0  0
 29 31  1  0  0  0  0
M  END
> <ChemID>
102299

> <source_casrn>
5259-88-1

> <CAS>
5259-88-1

> <SMILES>
CC1OCCS(=O)(=O)C=1C(=O)Nc1ccccc1

> <NAME>
OXYCARBOXIN

> <preferred_name>
Oxycarboxin

> <iupac>
2-methyl-N-phenyl-5,6-dihydro-1,4-oxathiine-3-carboxamide 4,4-dioxide

> <MPID>
26836

> <dsstox_substance_id>
DTXSID8034792

> <Canonical_QSARr>
CC1OCCS(=O)(=O)C=1C(=O)Nc1ccccc1

> <InChI_Code_QSARr>
InChI=1S/C12H13NO4S/c1-9-11(18(15,16)8-7-17-9)12(14)13-10-5-3-2-4-6-10/h2-6H,7-8H2,1H3,(H,13,14)

> <InChI Key_QSARr>
AMEKQAFGQBKLKX-UHFFFAOYSA-N

> <Salt_Solvent>
?

> <LogVP>
-7.3768

$$$$
102305
  -INDIGO-08031723152D

 34 33  0  0  0  0  0  0  0  0999 V2000
   -1.0284    2.8257    0.0000 B   0  0  0  0  0  0  0  0  0  0  0  0
   -0.4812    4.3292    0.0000 O   0  0  0  0  0  0  0  0  0  0  0  0
    1.0944    4.6069    0.0000 C   0  0  0  0  0  0  0  0  0  0  0  0
    1.3723    3.0313    0.0000 H   0  0  0  0  0  0  0  0  0  0  0  0
    2.6701    4.8848    0.0000 C   0  0  0  0  0  0  0  0  0  0  0  0
    4.2459    5.1627    0.0000 H   0  0  0  0  0  0  0  0  0  0  0  0
    3.2174    6.3884    0.0000 H   0  0  0  0  0  0  0  0  0  0  0  0
    3.6986    3.6592    0.0000 H   0  0  0  0  0  0  0  0  0  0  0  0
    0.8166    6.1827    0.0000 C   0  0  0  0  0  0  0  0  0  0  0  0
    0.5387    7.7584    0.0000 H   0  0  0  0  0  0  0  0  0  0  0  0
   -0.6869    6.7300    0.0000 H   0  0  0  0  0  0  0  0  0  0  0  0
    2.0423    7.2112    0.0000 H   0  0  0  0  0  0  0  0  0  0  0  0
   -2.6042    2.5478    0.0000 O   0  0  0  0  0  0  0  0  0  0  0  0
   -3.6326    3.7736    0.0000 C   0  0  0  0  0  0  0  0  0  0  0  0
   -2.4070    4.8020    0.0000 H   0  0  0  0  0  0  0  0  0  0  0  0
   -4.6611    4.9992    0.0000 C   0  0  0  0  0  0  0  0  0  0  0  0
   -4.3832    6.5749    0.0000 H   0  0  0  0  0  0  0  0  0  0  0  0
   -5.8867    6.0277    0.0000 H   0  0  0  0  0  0  0  0  0  0  0  0
   -3.1576    5.5464    0.0000 H   0  0  0  0  0  0  0  0  0  0  0  0
   -4.8583    2.7450    0.0000 C   0  0  0  0  0  0  0  0  0  0  0  0
   -6.0840    1.7165    0.0000 H   0  0  0  0  0  0  0  0  0  0  0  0
   -6.3618    3.2923    0.0000 H   0  0  0  0  0  0  0  0  0  0  0  0
   -4.5805    1.1693    0.0000 H   0  0  0  0  0  0  0  0  0  0  0  0
    0.0000    1.6000    0.0000 O   0  0  0  0  0  0  0  0  0  0  0  0
    0.0000   -0.0001    0.0000 C   0  0  0  0  0  0  0  0  0  0  0  0
    0.0000   -1.6000    0.0000 H   0  0  0  0  0  0  0  0  0  0  0  0
    1.6001   -0.0001    0.0000 C   0  0  0  0  0  0  0  0  0  0  0  0
    3.2001   -0.0001    0.0000 H   0  0  0  0  0  0  0  0  0  0  0  0
    2.4000   -1.3857    0.0000 H   0  0  0  0  0  0  0  0  0  0  0  0
    2.4000    1.3857    0.0000 H   0  0  0  0  0  0  0  0  0  0  0  0
   -1.6000   -0.0001    0.0000 C   0  0  0  0  0  0  0  0  0  0  0  0
   -3.2000   -0.0001    0.0000 H   0  0  0  0  0  0  0  0  0  0  0  0
   -2.4001   -1.3857    0.0000 H   0  0  0  0  0  0  0  0  0  0  0  0
   -2.4001    1.3857    0.0000 H   0  0  0  0  0  0  0  0  0  0  0  0
  1  2  1  0  0  0  0
  2  3  1  0  0  0  0
  3  4  1  0  0  0  0
  3  5  1  0  0  0  0
  5  6  1  0  0  0  0
  5  7  1  0  0  0  0
  5  8  1  0  0  0  0
  3  9  1  0  0  0  0
  9 10  1  0  0  0  0
  9 11  1  0  0  0  0
  9 12  1  0  0  0  0
  1 13  1  0  0  0  0
 13 14  1  0  0  0  0
 14 15  1  0  0  0  0
 14 16  1  0  0  0  0
 16 17  1  0  0  0  0
 16 18  1  0  0  0  0
 16 19  1  0  0  0  0
 14 20  1  0  0  0  0
 20 21  1  0  0  0  0
 20 22  1  0  0  0  0
 20 23  1  0  0  0  0
  1 24  1  0  0  0  0
 24 25  1  0  0  0  0
 25 26  1  0  0  0  0
 25 27  1  0  0  0  0
 27 28  1  0  0  0  0
 27 29  1  0  0  0  0
 27 30  1  0  0  0  0
 25 31  1  0  0  0  0
 31 32  1  0  0  0  0
 31 33  1  0  0  0  0
 31 34  1  0  0  0  0
M  END
> <ChemID>
102305

> <source_casrn>
5419-55-6

> <CAS>
5419-55-6

> <SMILES>
CC(C)OB(OC(C)C)OC(C)C

> <NAME>
TRIISOPROPYL BORATE

> <preferred_name>
Triisopropyl orthoborate

> <iupac>
tripropan-2-yl borate

> <MPID>
26840

> <dsstox_substance_id>
DTXSID7027598

> <Canonical_QSARr>
CC(C)OB(OC(C)C)OC(C)C

> <InChI_Code_QSARr>
InChI=1S/C9H21BO3/c1-7(2)11-10(12-8(3)4)13-9(5)6/h7-9H,1-6H3

> <InChI Key_QSARr>
NHDIQVFFNDKAQU-UHFFFAOYSA-N

> <Salt_Solvent>
?

> <LogVP>
0.8748

$$$$
102310
  -INDIGO-08031723152D

 34 37  0  0  0  0  0  0  0  0999 V2000
    2.4621   -0.8001    0.0000 C   0  0  0  0  0  0  0  0  0  0  0  0
    4.0622   -0.8001    0.0000 C   0  0  0  0  0  0  0  0  0  0  0  0
    5.0027    0.4944    0.0000 C   0  0  0  0  0  0  0  0  0  0  0  0
    4.5082    2.0161    0.0000 O   0  0  0  0  0  0  0  0  0  0  0  0
    6.5242    0.0000    0.0000 C   0  0  0  0  0  0  0  0  0  0  0  0
    7.9099    0.8000    0.0000 C   0  0  0  0  0  0  0  0  0  0  0  0
    7.9099    2.4001    0.0000 H   0  0  0  0  0  0  0  0  0  0  0  0
    9.2956    0.0000    0.0000 C   0  0  0  0  0  0  0  0  0  0  0  0
   10.6812    0.8000    0.0000 Cl  0  0  0  0  0  0  0  0  0  0  0  0
    9.2956   -1.6000    0.0000 C   0  0  0  0  0  0  0  0  0  0  0  0
   10.6812   -2.4000    0.0000 H   0  0  0  0  0  0  0  0  0  0  0  0
    7.9099   -2.4000    0.0000 C   0  0  0  0  0  0  0  0  0  0  0  0
    7.9099   -3.9999    0.0000 C   0  0  0  0  0  0  0  0  0  0  0  0
    7.9099   -5.6000    0.0000 H   0  0  0  0  0  0  0  0  0  0  0  0
    9.2956   -4.8000    0.0000 H   0  0  0  0  0  0  0  0  0  0  0  0
    6.5242   -4.8000    0.0000 H   0  0  0  0  0  0  0  0  0  0  0  0
    6.5242   -1.6000    0.0000 C   0  0  0  0  0  0  0  0  0  0  0  0
    5.0027   -2.0944    0.0000 S   0  0  0  0  0  0  0  0  0  0  0  0
    1.5216   -2.0944    0.0000 C   0  0  0  0  0  0  0  0  0  0  0  0
    2.0161   -3.6161    0.0000 O   0  0  0  0  0  0  0  0  0  0  0  0
    0.0001   -1.6000    0.0000 C   0  0  0  0  0  0  0  0  0  0  0  0
   -1.3856   -2.4000    0.0000 C   0  0  0  0  0  0  0  0  0  0  0  0
   -1.3856   -4.0001    0.0000 H   0  0  0  0  0  0  0  0  0  0  0  0
   -2.7713   -1.6000    0.0000 C   0  0  0  0  0  0  0  0  0  0  0  0
   -4.1569   -2.4000    0.0000 Cl  0  0  0  0  0  0  0  0  0  0  0  0
   -2.7713    0.0000    0.0000 C   0  0  0  0  0  0  0  0  0  0  0  0
   -4.1569    0.8000    0.0000 H   0  0  0  0  0  0  0  0  0  0  0  0
   -1.3856    0.8000    0.0000 C   0  0  0  0  0  0  0  0  0  0  0  0
   -1.3856    2.3999    0.0000 C   0  0  0  0  0  0  0  0  0  0  0  0
   -1.3856    4.0000    0.0000 H   0  0  0  0  0  0  0  0  0  0  0  0
   -2.7713    3.2000    0.0000 H   0  0  0  0  0  0  0  0  0  0  0  0
    0.0001    3.2000    0.0000 H   0  0  0  0  0  0  0  0  0  0  0  0
    0.0001    0.0000    0.0000 C   0  0  0  0  0  0  0  0  0  0  0  0
    1.5216    0.4944    0.0000 S   0  0  0  0  0  0  0  0  0  0  0  0
  1  2  2  0  0  0  0
  2  3  1  0  0  0  0
  3  4  2  0  0  0  0
  3  5  1  0  0  0  0
  5  6  1  0  0  0  0
  6  7  1  0  0  0  0
  6  8  2  0  0  0  0
  8  9  1  0  0  0  0
  8 10  1  0  0  0  0
 10 11  1  0  0  0  0
 10 12  2  0  0  0  0
 12 13  1  0  0  0  0
 13 14  1  0  0  0  0
 13 15  1  0  0  0  0
 13 16  1  0  0  0  0
 12 17  1  0  0  0  0
 17  5  2  0  0  0  0
 17 18  1  0  0  0  0
 18  2  1  0  0  0  0
  1 19  1  0  0  0  0
 19 20  2  0  0  0  0
 19 21  1  0  0  0  0
 21 22  1  0  0  0  0
 22 23  1  0  0  0  0
 22 24  2  0  0  0  0
 24 25  1  0  0  0  0
 24 26  1  0  0  0  0
 26 27  1  0  0  0  0
 26 28  2  0  0  0  0
 28 29  1  0  0  0  0
 29 30  1  0  0  0  0
 29 31  1  0  0  0  0
 29 32  1  0  0  0  0
 28 33  1  0  0  0  0
 33 21  2  0  0  0  0
 33 34  1  0  0  0  0
 34  1  1  0  0  0  0
M  END
> <ChemID>
102310

> <source_casrn>
5462-29-3

> <CAS>
5462-29-3

> <SMILES>
Cc1cc(Cl)cc2c1SC(=C1Sc3c(cc(Cl)cc3C)C1=O)C2=O

> <NAME>
C.I. VIOLET 2

> <preferred_name>
Benzo[b]thiophen-3(2H)-one, 5-chloro-2-(5-chloro-7-methyl-3-oxobenzo[b]thien-2(3H)-ylidene)-7-methyl-

> <iupac>


> <MPID>
26844

> <dsstox_substance_id>
DTXSID8063919

> <Canonical_QSARr>
Cc1cc(Cl)cc2c1SC(=C1Sc3c(cc(Cl)cc3C)C1=O)C2=O

> <InChI_Code_QSARr>
InChI=1S/C18H10Cl2O2S2/c1-7-3-9(19)5-11-13(21)17(23-15(7)11)18-14(22)12-6-10(20)4-8(2)16(12)24-18/h3-6H,1-2H3/b18-17+

> <InChI Key_QSARr>
HUGACAUYNJDGTB-ISLYRVAYSA-N

> <Salt_Solvent>
?

> <LogVP>
-9.5229

$$$$
102314
  -INDIGO-08031723152D

 38 41  0  0  0  0  0  0  0  0999 V2000
   -0.0000   -0.0000    0.0000 C   0  0  0  0  0  0  0  0  0  0  0  0
    0.5473    1.5035    0.0000 H   0  0  0  0  0  0  0  0  0  0  0  0
    1.5757    0.2778    0.0000 C   0  0  0  0  0  0  0  0  0  0  0  0
    2.1229    1.7813    0.0000 C   0  0  0  0  0  0  0  0  0  0  0  0
    1.0945    3.0070    0.0000 O   0  0  0  0  0  0  0  0  0  0  0  0
    1.6416    4.5105    0.0000 H   0  0  0  0  0  0  0  0  0  0  0  0
    3.6986    2.0592    0.0000 C   0  0  0  0  0  0  0  0  0  0  0  0
    4.7270    0.8335    0.0000 C   0  0  0  0  0  0  0  0  0  0  0  0
    6.3028    1.1114    0.0000 C   0  0  0  0  0  0  0  0  0  0  0  0
    7.3312   -0.1143    0.0000 H   0  0  0  0  0  0  0  0  0  0  0  0
    6.8499    2.6149    0.0000 C   0  0  0  0  0  0  0  0  0  0  0  0
    8.4257    2.8927    0.0000 H   0  0  0  0  0  0  0  0  0  0  0  0
    5.8215    3.8405    0.0000 C   0  0  0  0  0  0  0  0  0  0  0  0
    6.3689    5.3440    0.0000 H   0  0  0  0  0  0  0  0  0  0  0  0
    4.2458    3.5627    0.0000 C   0  0  0  0  0  0  0  0  0  0  0  0
    3.2174    4.7883    0.0000 H   0  0  0  0  0  0  0  0  0  0  0  0
    4.1799   -0.6700    0.0000 O   0  0  0  0  0  0  0  0  0  0  0  0
    2.6041   -0.9478    0.0000 C   0  0  0  0  0  0  0  0  0  0  0  0
    2.0570   -2.4513    0.0000 O   0  0  0  0  0  0  0  0  0  0  0  0
   -1.3857    0.8000    0.0000 C   0  0  0  0  0  0  0  0  0  0  0  0
   -2.7713   -0.0000    0.0000 C   0  0  0  0  0  0  0  0  0  0  0  0
   -4.1569    0.8000    0.0000 C   0  0  0  0  0  0  0  0  0  0  0  0
   -5.5426   -0.0000    0.0000 H   0  0  0  0  0  0  0  0  0  0  0  0
   -4.1569    2.4000    0.0000 C   0  0  0  0  0  0  0  0  0  0  0  0
   -5.5426    3.2000    0.0000 H   0  0  0  0  0  0  0  0  0  0  0  0
   -2.7713    3.2000    0.0000 C   0  0  0  0  0  0  0  0  0  0  0  0
   -2.7713    4.8000    0.0000 H   0  0  0  0  0  0  0  0  0  0  0  0
   -1.3857    2.4000    0.0000 C   0  0  0  0  0  0  0  0  0  0  0  0
   -0.0000    3.2000    0.0000 H   0  0  0  0  0  0  0  0  0  0  0  0
   -2.7713   -1.6000    0.0000 C   0  0  0  0  0  0  0  0  0  0  0  0
   -4.3470   -1.3222    0.0000 H   0  0  0  0  0  0  0  0  0  0  0  0
   -3.3184   -3.1035    0.0000 H   0  0  0  0  0  0  0  0  0  0  0  0
   -1.3857   -2.4000    0.0000 C   0  0  0  0  0  0  0  0  0  0  0  0
   -2.4141   -3.6257    0.0000 H   0  0  0  0  0  0  0  0  0  0  0  0
   -0.3572   -3.6257    0.0000 H   0  0  0  0  0  0  0  0  0  0  0  0
   -0.0000   -1.6000    0.0000 C   0  0  0  0  0  0  0  0  0  0  0  0
    0.5473   -3.1035    0.0000 H   0  0  0  0  0  0  0  0  0  0  0  0
    1.5757   -1.3222    0.0000 H   0  0  0  0  0  0  0  0  0  0  0  0
  1  2  1  0  0  0  0
  1  3  1  0  0  0  0
  3  4  2  0  0  0  0
  4  5  1  0  0  0  0
  5  6  1  0  0  0  0
  4  7  1  0  0  0  0
  7  8  1  0  0  0  0
  8  9  2  0  0  0  0
  9 10  1  0  0  0  0
  9 11  1  0  0  0  0
 11 12  1  0  0  0  0
 11 13  2  0  0  0  0
 13 14  1  0  0  0  0
 13 15  1  0  0  0  0
 15  7  2  0  0  0  0
 15 16  1  0  0  0  0
  8 17  1  0  0  0  0
 17 18  1  0  0  0  0
 18  3  1  0  0  0  0
 18 19  2  0  0  0  0
  1 20  1  0  0  0  0
 20 21  1  0  0  0  0
 21 22  2  0  0  0  0
 22 23  1  0  0  0  0
 22 24  1  0  0  0  0
 24 25  1  0  0  0  0
 24 26  2  0  0  0  0
 26 27  1  0  0  0  0
 26 28  1  0  0  0  0
 28 20  2  0  0  0  0
 28 29  1  0  0  0  0
 21 30  1  0  0  0  0
 30 31  1  0  0  0  0
 30 32  1  0  0  0  0
 30 33  1  0  0  0  0
 33 34  1  0  0  0  0
 33 35  1  0  0  0  0
 33 36  1  0  0  0  0
 36  1  1  0  0  0  0
 36 37  1  0  0  0  0
 36 38  1  0  0  0  0
M  END
> <ChemID>
102314

> <source_casrn>
5836-29-3

> <CAS>
5836-29-3

> <SMILES>
OC1=C(C2CCCc3ccccc32)C(=O)Oc2ccccc21

> <NAME>
Endrocide (Endox) (Coumatetralyl)

> <preferred_name>
Coumatetralyl

> <iupac>
4-hydroxy-3-(1,2,3,4-tetrahydronaphthalen-1-yl)-2H-chromen-2-one

> <MPID>
26848

> <dsstox_substance_id>
DTXSID8041799

> <Canonical_QSARr>
OC1=C(C2CCCc3ccccc32)C(=O)Oc2ccccc21

> <InChI_Code_QSARr>
InChI=1S/C19H16O3/c20-18-15-9-3-4-11-16(15)22-19(21)17(18)14-10-5-7-12-6-1-2-8-13(12)14/h1-4,6,8-9,11,14,20H,5,7,10H2

> <InChI Key_QSARr>
ULSLJYXHZDTLQK-UHFFFAOYSA-N

> <Salt_Solvent>
?

> <LogVP>
-10.1952

$$$$
102320
  -INDIGO-08031723152D

 63 63  0  0  0  0  0  0  0  0999 V2000
   -0.0001    0.0001    0.0000 C   0  0  0  0  0  0  0  0  0  0  0  0
    1.2256   -1.0285    0.0000 H   0  0  0  0  0  0  0  0  0  0  0  0
   -0.7998    1.3857    0.0000 C   0  0  0  0  0  0  0  0  0  0  0  0
    0.7757    1.6635    0.0000 H   0  0  0  0  0  0  0  0  0  0  0  0
   -1.0779    2.9613    0.0000 H   0  0  0  0  0  0  0  0  0  0  0  0
   -2.4002    1.3857    0.0000 C   0  0  0  0  0  0  0  0  0  0  0  0
   -2.1221    2.9613    0.0000 H   0  0  0  0  0  0  0  0  0  0  0  0
   -3.9036    1.9329    0.0000 H   0  0  0  0  0  0  0  0  0  0  0  0
   -3.2000    0.0001    0.0000 C   0  0  0  0  0  0  0  0  0  0  0  0
   -4.4257    1.0285    0.0000 H   0  0  0  0  0  0  0  0  0  0  0  0
   -4.4257   -1.0285    0.0000 H   0  0  0  0  0  0  0  0  0  0  0  0
   -2.4002   -1.3857    0.0000 C   0  0  0  0  0  0  0  0  0  0  0  0
   -3.9036   -1.9329    0.0000 H   0  0  0  0  0  0  0  0  0  0  0  0
   -2.1221   -2.9613    0.0000 H   0  0  0  0  0  0  0  0  0  0  0  0
   -0.7998   -1.3857    0.0000 C   0  0  0  0  0  0  0  0  0  0  0  0
   -1.0779   -2.9613    0.0000 H   0  0  0  0  0  0  0  0  0  0  0  0
    0.7035   -1.9329    0.0000 H   0  0  0  0  0  0  0  0  0  0  0  0
    1.2256    1.0285    0.0000 C   0  0  0  0  0  0  0  0  0  0  0  0
    0.3662    2.3779    0.0000 H   0  0  0  0  0  0  0  0  0  0  0  0
    1.5718    2.5905    0.0000 H   0  0  0  0  0  0  0  0  0  0  0  0
    2.7290    0.4813    0.0000 C   0  0  0  0  0  0  0  0  0  0  0  0
    3.5889   -0.8682    0.0000 H   0  0  0  0  0  0  0  0  0  0  0  0
    2.3828   -1.0809    0.0000 H   0  0  0  0  0  0  0  0  0  0  0  0
    3.9547    1.5097    0.0000 C   0  0  0  0  0  0  0  0  0  0  0  0
    3.0952    2.8591    0.0000 H   0  0  0  0  0  0  0  0  0  0  0  0
    4.3013    3.0718    0.0000 H   0  0  0  0  0  0  0  0  0  0  0  0
    5.4585    0.9625    0.0000 C   0  0  0  0  0  0  0  0  0  0  0  0
    6.3180   -0.3870    0.0000 H   0  0  0  0  0  0  0  0  0  0  0  0
    5.1119   -0.5996    0.0000 H   0  0  0  0  0  0  0  0  0  0  0  0
    6.6842    1.9910    0.0000 C   0  0  0  0  0  0  0  0  0  0  0  0
    5.8243    3.3403    0.0000 H   0  0  0  0  0  0  0  0  0  0  0  0
    7.0304    3.5530    0.0000 H   0  0  0  0  0  0  0  0  0  0  0  0
    8.1876    1.4436    0.0000 C   0  0  0  0  0  0  0  0  0  0  0  0
    9.0471    0.0943    0.0000 H   0  0  0  0  0  0  0  0  0  0  0  0
    7.8414   -0.1184    0.0000 H   0  0  0  0  0  0  0  0  0  0  0  0
    9.4133    2.4722    0.0000 C   0  0  0  0  0  0  0  0  0  0  0  0
    8.5534    3.8215    0.0000 H   0  0  0  0  0  0  0  0  0  0  0  0
    9.7595    4.0342    0.0000 H   0  0  0  0  0  0  0  0  0  0  0  0
   10.9167    1.9250    0.0000 C   0  0  0  0  0  0  0  0  0  0  0  0
   11.7766    0.5755    0.0000 H   0  0  0  0  0  0  0  0  0  0  0  0
   10.5705    0.3628    0.0000 H   0  0  0  0  0  0  0  0  0  0  0  0
   12.1424    2.9534    0.0000 C   0  0  0  0  0  0  0  0  0  0  0  0
   11.2825    4.3028    0.0000 H   0  0  0  0  0  0  0  0  0  0  0  0
   12.4886    4.5154    0.0000 H   0  0  0  0  0  0  0  0  0  0  0  0
   13.6458    2.4062    0.0000 C   0  0  0  0  0  0  0  0  0  0  0  0
   14.5056    1.0567    0.0000 H   0  0  0  0  0  0  0  0  0  0  0  0
   13.2996    0.8441    0.0000 H   0  0  0  0  0  0  0  0  0  0  0  0
   14.8715    3.4347    0.0000 C   0  0  0  0  0  0  0  0  0  0  0  0
   14.0120    4.7840    0.0000 H   0  0  0  0  0  0  0  0  0  0  0  0
   15.2177    4.9967    0.0000 H   0  0  0  0  0  0  0  0  0  0  0  0
   16.3753    2.8874    0.0000 C   0  0  0  0  0  0  0  0  0  0  0  0
   17.2347    1.5380    0.0000 H   0  0  0  0  0  0  0  0  0  0  0  0
   16.0287    1.3253    0.0000 H   0  0  0  0  0  0  0  0  0  0  0  0
   17.6006    3.9159    0.0000 C   0  0  0  0  0  0  0  0  0  0  0  0
   16.7411    5.2652    0.0000 H   0  0  0  0  0  0  0  0  0  0  0  0
   17.9472    5.4779    0.0000 H   0  0  0  0  0  0  0  0  0  0  0  0
   19.1043    3.3687    0.0000 C   0  0  0  0  0  0  0  0  0  0  0  0
   19.9638    2.0192    0.0000 H   0  0  0  0  0  0  0  0  0  0  0  0
   18.7578    1.8065    0.0000 H   0  0  0  0  0  0  0  0  0  0  0  0
   20.3301    4.3971    0.0000 C   0  0  0  0  0  0  0  0  0  0  0  0
   21.5558    5.4256    0.0000 H   0  0  0  0  0  0  0  0  0  0  0  0
   21.8334    3.8499    0.0000 H   0  0  0  0  0  0  0  0  0  0  0  0
   20.0520    5.9728    0.0000 H   0  0  0  0  0  0  0  0  0  0  0  0
  1  2  1  0  0  0  0
  1  3  1  0  0  0  0
  3  4  1  0  0  0  0
  3  5  1  0  0  0  0
  3  6  1  0  0  0  0
  6  7  1  0  0  0  0
  6  8  1  0  0  0  0
  6  9  1  0  0  0  0
  9 10  1  0  0  0  0
  9 11  1  0  0  0  0
  9 12  1  0  0  0  0
 12 13  1  0  0  0  0
 12 14  1  0  0  0  0
 12 15  1  0  0  0  0
 15  1  1  0  0  0  0
 15 16  1  0  0  0  0
 15 17  1  0  0  0  0
  1 18  1  0  0  0  0
 18 19  1  0  0  0  0
 18 20  1  0  0  0  0
 18 21  1  0  0  0  0
 21 22  1  0  0  0  0
 21 23  1  0  0  0  0
 21 24  1  0  0  0  0
 24 25  1  0  0  0  0
 24 26  1  0  0  0  0
 24 27  1  0  0  0  0
 27 28  1  0  0  0  0
 27 29  1  0  0  0  0
 27 30  1  0  0  0  0
 30 31  1  0  0  0  0
 30 32  1  0  0  0  0
 30 33  1  0  0  0  0
 33 34  1  0  0  0  0
 33 35  1  0  0  0  0
 33 36  1  0  0  0  0
 36 37  1  0  0  0  0
 36 38  1  0  0  0  0
 36 39  1  0  0  0  0
 39 40  1  0  0  0  0
 39 41  1  0  0  0  0
 39 42  1  0  0  0  0
 42 43  1  0  0  0  0
 42 44  1  0  0  0  0
 42 45  1  0  0  0  0
 45 46  1  0  0  0  0
 45 47  1  0  0  0  0
 45 48  1  0  0  0  0
 48 49  1  0  0  0  0
 48 50  1  0  0  0  0
 48 51  1  0  0  0  0
 51 52  1  0  0  0  0
 51 53  1  0  0  0  0
 51 54  1  0  0  0  0
 54 55  1  0  0  0  0
 54 56  1  0  0  0  0
 54 57  1  0  0  0  0
 57 58  1  0  0  0  0
 57 59  1  0  0  0  0
 57 60  1  0  0  0  0
 60 61  1  0  0  0  0
 60 62  1  0  0  0  0
 60 63  1  0  0  0  0
M  END
> <ChemID>
102320

> <source_casrn>
6006-95-7

> <CAS>
6006-95-7

> <SMILES>
CCCCCCCCCCCCCCCC1CCCCC1

> <NAME>
N-PENTADECYLCYCLOHEXANE

> <preferred_name>
Cyclohexane, pentadecyl-

> <iupac>
Pentadecylcyclohexane

> <MPID>
26854

> <dsstox_substance_id>
DTXSID1064081

> <Canonical_QSARr>
CCCCCCCCCCCCCCCC1CCCCC1

> <InChI_Code_QSARr>
InChI=1S/C21H42/c1-2-3-4-5-6-7-8-9-10-11-12-13-15-18-21-19-16-14-17-20-21/h21H,2-20H2,1H3

> <InChI Key_QSARr>
ZNUABQHWFGTOCO-UHFFFAOYSA-N

> <Salt_Solvent>
?

> <LogVP>
-6.461

$$$$
102325
  -INDIGO-08031723152D

 27 28  0  0  0  0  0  0  0  0999 V2000
   -2.4001   -1.3856    0.0000 C   0  0  0  0  0  0  0  0  0  0  0  0
   -3.2001   -0.0000    0.0000 C   0  0  0  0  0  0  0  0  0  0  0  0
   -2.4001    1.3857    0.0000 H   0  0  0  0  0  0  0  0  0  0  0  0
   -4.8000   -0.0000    0.0000 C   0  0  0  0  0  0  0  0  0  0  0  0
   -5.6000    1.3857    0.0000 H   0  0  0  0  0  0  0  0  0  0  0  0
   -5.6000   -1.3856    0.0000 C   0  0  0  0  0  0  0  0  0  0  0  0
   -7.2000   -1.3856    0.0000 H   0  0  0  0  0  0  0  0  0  0  0  0
   -4.8000   -2.7712    0.0000 C   0  0  0  0  0  0  0  0  0  0  0  0
   -5.6000   -4.1570    0.0000 H   0  0  0  0  0  0  0  0  0  0  0  0
   -3.2001   -2.7712    0.0000 C   0  0  0  0  0  0  0  0  0  0  0  0
   -2.4001   -4.1570    0.0000 C   0  0  0  0  0  0  0  0  0  0  0  0
   -3.2001   -5.5426    0.0000 H   0  0  0  0  0  0  0  0  0  0  0  0
   -0.8000   -4.1570    0.0000 C   0  0  0  0  0  0  0  0  0  0  0  0
   -0.0000   -5.5426    0.0000 H   0  0  0  0  0  0  0  0  0  0  0  0
   -0.0000   -2.7712    0.0000 C   0  0  0  0  0  0  0  0  0  0  0  0
    1.6000   -2.7712    0.0000 H   0  0  0  0  0  0  0  0  0  0  0  0
   -0.8000   -1.3856    0.0000 C   0  0  0  0  0  0  0  0  0  0  0  0
   -0.0000   -0.0000    0.0000 C   0  0  0  0  0  0  0  0  0  0  0  0
   -1.3857    0.8001    0.0000 H   0  0  0  0  0  0  0  0  0  0  0  0
    0.5473    1.5035    0.0000 C   0  0  0  0  0  0  0  0  0  0  0  0
    1.0944    3.0070    0.0000 H   0  0  0  0  0  0  0  0  0  0  0  0
    2.1230    1.7814    0.0000 H   0  0  0  0  0  0  0  0  0  0  0  0
   -0.4813    2.7291    0.0000 H   0  0  0  0  0  0  0  0  0  0  0  0
    1.3856   -0.8000    0.0000 C   0  0  0  0  0  0  0  0  0  0  0  0
    2.7713   -1.6000    0.0000 H   0  0  0  0  0  0  0  0  0  0  0  0
    2.7713   -0.0000    0.0000 H   0  0  0  0  0  0  0  0  0  0  0  0
    1.3856    0.8001    0.0000 H   0  0  0  0  0  0  0  0  0  0  0  0
  1  2  1  0  0  0  0
  2  3  1  0  0  0  0
  2  4  2  0  0  0  0
  4  5  1  0  0  0  0
  4  6  1  0  0  0  0
  6  7  1  0  0  0  0
  6  8  2  0  0  0  0
  8  9  1  0  0  0  0
  8 10  1  0  0  0  0
 10  1  1  0  0  0  0
 10 11  2  0  0  0  0
 11 12  1  0  0  0  0
 11 13  1  0  0  0  0
 13 14  1  0  0  0  0
 13 15  2  0  0  0  0
 15 16  1  0  0  0  0
 15 17  1  0  0  0  0
 17  1  2  0  0  0  0
 17 18  1  0  0  0  0
 18 19  1  0  0  0  0
 18 20  1  0  0  0  0
 20 21  1  0  0  0  0
 20 22  1  0  0  0  0
 20 23  1  0  0  0  0
 18 24  1  0  0  0  0
 24 25  1  0  0  0  0
 24 26  1  0  0  0  0
 24 27  1  0  0  0  0
M  END
> <ChemID>
102325

> <source_casrn>
6158-45-8

> <CAS>
NOCAS_865481

> <SMILES>
CC(C)c1cccc2ccccc21

> <NAME>
1-ISOPROPYLNAPHTHALENE

> <preferred_name>


> <iupac>


> <MPID>
26858

> <dsstox_substance_id>
DTXSID70865481

> <Canonical_QSARr>
CC(C)c1cccc2ccccc21

> <InChI_Code_QSARr>
InChI=1S/C13H14/c1-10(2)12-9-5-7-11-6-3-4-8-13(11)12/h3-10H,1-2H3

> <InChI Key_QSARr>
PMPBFICDXLLSRM-UHFFFAOYSA-N

> <Salt_Solvent>
?

> <LogVP>
-2.2175

$$$$
102329
  -INDIGO-08031723152D

 30 31  0  0  0  0  0  0  0  0999 V2000
   -1.3856    0.8000    0.0000 C   0  0  0  0  0  0  0  0  0  0  0  0
   -0.0000    0.0000    0.0000 C   0  0  0  0  0  0  0  0  0  0  0  0
    1.3856    0.8000    0.0000 N   0  0  0  0  0  0  0  0  0  0  0  0
    1.3856    2.4000    0.0000 H   0  0  0  0  0  0  0  0  0  0  0  0
    2.9613    0.5222    0.0000 C   0  0  0  0  0  0  0  0  0  0  0  0
    3.5085   -0.9813    0.0000 C   0  0  0  0  0  0  0  0  0  0  0  0
    2.4800   -2.2071    0.0000 H   0  0  0  0  0  0  0  0  0  0  0  0
    5.0843   -1.2591    0.0000 C   0  0  0  0  0  0  0  0  0  0  0  0
    5.6315   -2.7627    0.0000 H   0  0  0  0  0  0  0  0  0  0  0  0
    6.1128   -0.0335    0.0000 C   0  0  0  0  0  0  0  0  0  0  0  0
    7.6883   -0.3113    0.0000 N   0  0  0  0  0  0  0  0  0  0  0  0
    8.2356   -1.8148    0.0000 H   0  0  0  0  0  0  0  0  0  0  0  0
    8.7169    0.9143    0.0000 H   0  0  0  0  0  0  0  0  0  0  0  0
    5.5656    1.4700    0.0000 C   0  0  0  0  0  0  0  0  0  0  0  0
    6.5939    2.6957    0.0000 H   0  0  0  0  0  0  0  0  0  0  0  0
    3.9898    1.7479    0.0000 C   0  0  0  0  0  0  0  0  0  0  0  0
    3.4426    3.2513    0.0000 H   0  0  0  0  0  0  0  0  0  0  0  0
   -0.0000   -1.6000    0.0000 C   0  0  0  0  0  0  0  0  0  0  0  0
    1.3856   -2.4000    0.0000 H   0  0  0  0  0  0  0  0  0  0  0  0
   -1.3856   -2.4000    0.0000 C   0  0  0  0  0  0  0  0  0  0  0  0
   -1.3856   -4.0000    0.0000 H   0  0  0  0  0  0  0  0  0  0  0  0
   -2.7712   -1.6000    0.0000 C   0  0  0  0  0  0  0  0  0  0  0  0
   -4.1570   -2.4000    0.0000 N   0  0  0  0  0  0  0  0  0  0  0  0
   -4.1570   -4.0000    0.0000 O   0  0  0  0  0  0  0  0  0  0  0  0
   -5.5426   -1.6000    0.0000 O   0  0  0  0  0  0  0  0  0  0  0  0
   -2.7712    0.0000    0.0000 C   0  0  0  0  0  0  0  0  0  0  0  0
   -4.1570    0.8000    0.0000 H   0  0  0  0  0  0  0  0  0  0  0  0
   -1.3856    2.4000    0.0000 N   0  0  0  0  0  0  0  0  0  0  0  0
   -2.7712    3.2000    0.0000 O   0  0  0  0  0  0  0  0  0  0  0  0
   -0.0000    3.2000    0.0000 O   0  0  0  0  0  0  0  0  0  0  0  0
  1  2  1  0  0  0  0
  2  3  1  0  0  0  0
  3  4  1  0  0  0  0
  3  5  1  0  0  0  0
  5  6  1  0  0  0  0
  6  7  1  0  0  0  0
  6  8  2  0  0  0  0
  8  9  1  0  0  0  0
  8 10  1  0  0  0  0
 10 11  1  0  0  0  0
 11 12  1  0  0  0  0
 11 13  1  0  0  0  0
 10 14  2  0  0  0  0
 14 15  1  0  0  0  0
 14 16  1  0  0  0  0
 16  5  2  0  0  0  0
 16 17  1  0  0  0  0
  2 18  2  0  0  0  0
 18 19  1  0  0  0  0
 18 20  1  0  0  0  0
 20 21  1  0  0  0  0
 20 22  2  0  0  0  0
 22 23  1  0  0  0  0
 23 24  2  0  0  0  0
 23 25  1  0  0  0  0
 22 26  1  0  0  0  0
 26  1  2  0  0  0  0
 26 27  1  0  0  0  0
  1 28  1  0  0  0  0
 28 29  2  0  0  0  0
 28 30  1  0  0  0  0
M  CHG  4  23   1  25  -1  28   1  30  -1
M  END
> <ChemID>
102329

> <source_casrn>
6373-73-5

> <CAS>
6373-73-5

> <SMILES>
Nc1ccc(cc1)Nc1ccc(cc1[N+]([O-])=O)[N+]([O-])=O

> <NAME>
N-(2,4-DINITROPHENYL)-1,4-BENZENEDIAMINE

> <preferred_name>
1,4-Benzenediamine, N-(2,4-dinitrophenyl)-

> <iupac>
N-(2,4-Dinitrophenyl)benzene-1,4-diamine

> <MPID>
26862

> <dsstox_substance_id>
DTXSID2064288

> <Canonical_QSARr>
Nc1ccc(cc1)Nc1ccc(cc1[N+]([O-])=O)[N+]([O-])=O

> <InChI_Code_QSARr>
InChI=1S/C12H10N4O4/c13-8-1-3-9(4-2-8)14-11-6-5-10(15(17)18)7-12(11)16(19)20/h1-7,14H,13H2

> <InChI Key_QSARr>
JMDHCJDATBJFJS-UHFFFAOYSA-N

> <Salt_Solvent>
?

> <LogVP>
-10.2218

$$$$
102334
  -INDIGO-08031723152D

 23 24  0  0  0  0  0  0  0  0999 V2000
    2.6702   -3.2849    0.0000 Cl  0  0  0  0  0  0  0  0  0  0  0  0
    2.1229   -1.7813    0.0000 C   0  0  0  0  0  0  0  0  0  0  0  0
    3.1513   -0.5556    0.0000 C   0  0  0  0  0  0  0  0  0  0  0  0
    4.7271   -0.8335    0.0000 H   0  0  0  0  0  0  0  0  0  0  0  0
    2.6042    0.9479    0.0000 C   0  0  0  0  0  0  0  0  0  0  0  0
    3.6326    2.1735    0.0000 H   0  0  0  0  0  0  0  0  0  0  0  0
    1.0284    1.2257    0.0000 C   0  0  0  0  0  0  0  0  0  0  0  0
    0.4813    2.7292    0.0000 H   0  0  0  0  0  0  0  0  0  0  0  0
   -0.0000    0.0000    0.0000 C   0  0  0  0  0  0  0  0  0  0  0  0
   -1.5756    0.2779    0.0000 O   0  0  0  0  0  0  0  0  0  0  0  0
   -2.9614   -0.5221    0.0000 C   0  0  0  0  0  0  0  0  0  0  0  0
   -2.9614   -2.1222    0.0000 C   0  0  0  0  0  0  0  0  0  0  0  0
   -1.5756   -2.9222    0.0000 H   0  0  0  0  0  0  0  0  0  0  0  0
   -4.3470   -2.9222    0.0000 C   0  0  0  0  0  0  0  0  0  0  0  0
   -4.3470   -4.5222    0.0000 H   0  0  0  0  0  0  0  0  0  0  0  0
   -5.7326   -2.1222    0.0000 C   0  0  0  0  0  0  0  0  0  0  0  0
   -7.1183   -2.9222    0.0000 H   0  0  0  0  0  0  0  0  0  0  0  0
   -5.7326   -0.5221    0.0000 C   0  0  0  0  0  0  0  0  0  0  0  0
   -7.1183    0.2779    0.0000 H   0  0  0  0  0  0  0  0  0  0  0  0
   -4.3470    0.2779    0.0000 C   0  0  0  0  0  0  0  0  0  0  0  0
   -4.3470    1.8779    0.0000 H   0  0  0  0  0  0  0  0  0  0  0  0
    0.5473   -1.5035    0.0000 C   0  0  0  0  0  0  0  0  0  0  0  0
   -0.4812   -2.7292    0.0000 H   0  0  0  0  0  0  0  0  0  0  0  0
  1  2  1  0  0  0  0
  2  3  1  0  0  0  0
  3  4  1  0  0  0  0
  3  5  2  0  0  0  0
  5  6  1  0  0  0  0
  5  7  1  0  0  0  0
  7  8  1  0  0  0  0
  7  9  2  0  0  0  0
  9 10  1  0  0  0  0
 10 11  1  0  0  0  0
 11 12  1  0  0  0  0
 12 13  1  0  0  0  0
 12 14  2  0  0  0  0
 14 15  1  0  0  0  0
 14 16  1  0  0  0  0
 16 17  1  0  0  0  0
 16 18  2  0  0  0  0
 18 19  1  0  0  0  0
 18 20  1  0  0  0  0
 20 11  2  0  0  0  0
 20 21  1  0  0  0  0
  9 22  1  0  0  0  0
 22  2  2  0  0  0  0
 22 23  1  0  0  0  0
M  END
> <ChemID>
102334

> <source_casrn>
6452-49-9

> <CAS>
6452-49-9

> <SMILES>
Clc1cc(ccc1)Oc1ccccc1

> <NAME>
3-Chlorodiphenyl ether

> <preferred_name>
Benzene, 1-chloro-3-phenoxy-

> <iupac>
1-chloro-3-(phenoxy)benzene

> <MPID>
26866

> <dsstox_substance_id>
DTXSID1064370

> <Canonical_QSARr>
Clc1cc(ccc1)Oc1ccccc1

> <InChI_Code_QSARr>
InChI=1S/C12H9ClO/c13-10-5-4-8-12(9-10)14-11-6-2-1-3-7-11/h1-9H

> <InChI Key_QSARr>
BMURONZFJJPAOK-UHFFFAOYSA-N

> <Salt_Solvent>
?

> <LogVP>
-2.4248

$$$$
102339
  -INDIGO-08031723152D

 18 17  0  0  0  0  0  0  0  0999 V2000
   -0.8000    1.3856    0.0000 O   0  0  0  0  0  0  0  0  0  0  0  0
   -0.0000    0.0000    0.0000 C   0  0  0  0  0  0  0  0  0  0  0  0
    0.8001   -1.3856    0.0000 H   0  0  0  0  0  0  0  0  0  0  0  0
    1.3857    0.8000    0.0000 C   0  0  0  0  0  0  0  0  0  0  0  0
    0.7733    2.2782    0.0000 H   0  0  0  0  0  0  0  0  0  0  0  0
    1.9979    2.2782    0.0000 H   0  0  0  0  0  0  0  0  0  0  0  0
    2.7712    0.0000    0.0000 C   0  0  0  0  0  0  0  0  0  0  0  0
    4.1569   -0.8000    0.0000 H   0  0  0  0  0  0  0  0  0  0  0  0
    4.1569    0.8000    0.0000 H   0  0  0  0  0  0  0  0  0  0  0  0
    2.7712   -1.6000    0.0000 H   0  0  0  0  0  0  0  0  0  0  0  0
   -1.3857   -0.8000    0.0000 C   0  0  0  0  0  0  0  0  0  0  0  0
   -2.7713   -1.6000    0.0000 H   0  0  0  0  0  0  0  0  0  0  0  0
   -1.3857   -2.4000    0.0000 H   0  0  0  0  0  0  0  0  0  0  0  0
   -2.7713    0.0000    0.0000 H   0  0  0  0  0  0  0  0  0  0  0  0
   -2.4000    1.3856    0.0000 C   0  0  0  0  0  0  0  0  0  0  0  0
   -3.2001    2.7713    0.0000 H   0  0  0  0  0  0  0  0  0  0  0  0
   -4.0000    1.3856    0.0000 H   0  0  0  0  0  0  0  0  0  0  0  0
   -1.6000    2.7713    0.0000 H   0  0  0  0  0  0  0  0  0  0  0  0
  1  2  1  0  0  0  0
  2  3  1  0  0  0  0
  2  4  1  0  0  0  0
  4  5  1  0  0  0  0
  4  6  1  0  0  0  0
  4  7  1  0  0  0  0
  7  8  1  0  0  0  0
  7  9  1  0  0  0  0
  7 10  1  0  0  0  0
  2 11  1  0  0  0  0
 11 12  1  0  0  0  0
 11 13  1  0  0  0  0
 11 14  1  0  0  0  0
  1 15  1  0  0  0  0
 15 16  1  0  0  0  0
 15 17  1  0  0  0  0
 15 18  1  0  0  0  0
M  END
> <ChemID>
102339

> <source_casrn>
6795-87-5

> <CAS>
NOCAS_871171

> <SMILES>
CCC(C)OC

> <NAME>
SEC-BUTYL METHYL ETHER

> <preferred_name>


> <iupac>


> <MPID>
26870

> <dsstox_substance_id>
DTXSID00871171

> <Canonical_QSARr>
CCC(C)OC

> <InChI_Code_QSARr>
InChI=1S/C5H12O/c1-4-5(2)6-3/h5H,4H2,1-3H3

> <InChI Key_QSARr>
FVNIMHIOIXPIQT-UHFFFAOYSA-N

> <Salt_Solvent>
?

> <LogVP>
2.3183

$$$$
102344
  -INDIGO-08031723152D

 15 14  0  0  0  0  0  0  0  0999 V2000
   -1.3857   -0.8000    0.0000 C   0  0  0  0  0  0  0  0  0  0  0  0
   -0.0001    0.0000    0.0000 C   0  0  0  0  0  0  0  0  0  0  0  0
    0.8000   -1.3856    0.0000 H   0  0  0  0  0  0  0  0  0  0  0  0
    1.3857    0.8000    0.0000 C   0  0  0  0  0  0  0  0  0  0  0  0
    0.7734    2.2782    0.0000 H   0  0  0  0  0  0  0  0  0  0  0  0
    1.9980    2.2782    0.0000 H   0  0  0  0  0  0  0  0  0  0  0  0
    2.7713    0.0000    0.0000 C   0  0  0  0  0  0  0  0  0  0  0  0
    4.1569    0.8000    0.0000 O   0  0  0  0  0  0  0  0  0  0  0  0
    5.5426    0.0000    0.0000 H   0  0  0  0  0  0  0  0  0  0  0  0
    2.7713   -1.6000    0.0000 O   0  0  0  0  0  0  0  0  0  0  0  0
   -0.8000    1.3856    0.0000 O   0  0  0  0  0  0  0  0  0  0  0  0
   -2.4000    1.3856    0.0000 H   0  0  0  0  0  0  0  0  0  0  0  0
   -2.7713    0.0000    0.0000 O   0  0  0  0  0  0  0  0  0  0  0  0
   -4.1569   -0.8000    0.0000 H   0  0  0  0  0  0  0  0  0  0  0  0
   -1.3857   -2.4000    0.0000 O   0  0  0  0  0  0  0  0  0  0  0  0
  1  2  1  0  0  0  0
  2  3  1  0  0  0  0
  2  4  1  0  0  0  0
  4  5  1  0  0  0  0
  4  6  1  0  0  0  0
  4  7  1  0  0  0  0
  7  8  1  0  0  0  0
  8  9  1  0  0  0  0
  7 10  2  0  0  0  0
  2 11  1  0  0  0  0
 11 12  1  0  0  0  0
  1 13  1  0  0  0  0
 13 14  1  0  0  0  0
  1 15  2  0  0  0  0
M  END
> <ChemID>
102344

> <source_casrn>
6915-15-7

> <CAS>
6915-15-7

> <SMILES>
OC(=O)C(O)CC(O)=O

> <NAME>
MALIC ACID

> <preferred_name>
Malic acid

> <iupac>
2-hydroxybutanedioic acid

> <MPID>
26875

> <dsstox_substance_id>
DTXSID0027640

> <Canonical_QSARr>
OC(=O)C(O)CC(O)=O

> <InChI_Code_QSARr>
InChI=1S/C4H6O5/c5-2(4(8)9)1-3(6)7/h2,5H,1H2,(H,6,7)(H,8,9)

> <InChI Key_QSARr>
BJEPYKJPYRNKOW-UHFFFAOYSA-N

> <Salt_Solvent>
?

> <LogVP>
-7.4841

$$$$
102349
  -INDIGO-08031723152D

 23 24  0  0  0  0  0  0  0  0999 V2000
   -1.0284    1.2257    0.0000 C   0  0  0  0  0  0  0  0  0  0  0  0
   -0.4813    2.7292    0.0000 H   0  0  0  0  0  0  0  0  0  0  0  0
    0.0000    0.0000    0.0000 C   0  0  0  0  0  0  0  0  0  0  0  0
    1.5756    0.2779    0.0000 O   0  0  0  0  0  0  0  0  0  0  0  0
    2.9614   -0.5221    0.0000 C   0  0  0  0  0  0  0  0  0  0  0  0
    2.9614   -2.1222    0.0000 C   0  0  0  0  0  0  0  0  0  0  0  0
    1.5756   -2.9222    0.0000 H   0  0  0  0  0  0  0  0  0  0  0  0
    4.3470   -2.9222    0.0000 C   0  0  0  0  0  0  0  0  0  0  0  0
    4.3470   -4.5222    0.0000 H   0  0  0  0  0  0  0  0  0  0  0  0
    5.7326   -2.1222    0.0000 C   0  0  0  0  0  0  0  0  0  0  0  0
    7.1183   -2.9222    0.0000 H   0  0  0  0  0  0  0  0  0  0  0  0
    5.7326   -0.5221    0.0000 C   0  0  0  0  0  0  0  0  0  0  0  0
    7.1183    0.2779    0.0000 H   0  0  0  0  0  0  0  0  0  0  0  0
    4.3470    0.2779    0.0000 C   0  0  0  0  0  0  0  0  0  0  0  0
    4.3470    1.8779    0.0000 H   0  0  0  0  0  0  0  0  0  0  0  0
   -0.5473   -1.5035    0.0000 C   0  0  0  0  0  0  0  0  0  0  0  0
    0.4812   -2.7292    0.0000 H   0  0  0  0  0  0  0  0  0  0  0  0
   -2.1229   -1.7813    0.0000 C   0  0  0  0  0  0  0  0  0  0  0  0
   -2.6702   -3.2849    0.0000 H   0  0  0  0  0  0  0  0  0  0  0  0
   -3.1513   -0.5556    0.0000 C   0  0  0  0  0  0  0  0  0  0  0  0
   -4.7271   -0.8335    0.0000 Cl  0  0  0  0  0  0  0  0  0  0  0  0
   -2.6042    0.9479    0.0000 C   0  0  0  0  0  0  0  0  0  0  0  0
   -3.6326    2.1735    0.0000 H   0  0  0  0  0  0  0  0  0  0  0  0
  1  2  1  0  0  0  0
  1  3  1  0  0  0  0
  3  4  1  0  0  0  0
  4  5  1  0  0  0  0
  5  6  1  0  0  0  0
  6  7  1  0  0  0  0
  6  8  2  0  0  0  0
  8  9  1  0  0  0  0
  8 10  1  0  0  0  0
 10 11  1  0  0  0  0
 10 12  2  0  0  0  0
 12 13  1  0  0  0  0
 12 14  1  0  0  0  0
 14  5  2  0  0  0  0
 14 15  1  0  0  0  0
  3 16  2  0  0  0  0
 16 17  1  0  0  0  0
 16 18  1  0  0  0  0
 18 19  1  0  0  0  0
 18 20  2  0  0  0  0
 20 21  1  0  0  0  0
 20 22  1  0  0  0  0
 22  1  2  0  0  0  0
 22 23  1  0  0  0  0
M  END
> <ChemID>
102349

> <source_casrn>
7005-72-3

> <CAS>
7005-72-3

> <SMILES>
Clc1ccc(cc1)Oc1ccccc1

> <NAME>
4-CHLOROPHENYL PHENYL ETHER

> <preferred_name>
1-Chloro-4-phenoxybenzene

> <iupac>
1-chloro-4-phenoxybenzene

> <MPID>
26880

> <dsstox_substance_id>
DTXSID2052447

> <Canonical_QSARr>
Clc1ccc(cc1)Oc1ccccc1

> <InChI_Code_QSARr>
InChI=1S/C12H9ClO/c13-10-6-8-12(9-7-10)14-11-4-2-1-3-5-11/h1-9H

> <InChI Key_QSARr>
PGPNJCAMHOJTEF-UHFFFAOYSA-N

> <Salt_Solvent>
?

> <LogVP>
-2.5686

$$$$
102353
  -INDIGO-08031723152D

 10  9  0  0  0  0  0  0  0  0999 V2000
    1.3856   -0.8000    0.0000 Se  0  0  0  0  0  0  0  0  0  0  0  0
    2.7713    0.0000    0.0000 Se  0  0  0  0  0  0  0  0  0  0  0  0
    4.1569   -0.8000    0.0000 C   0  0  0  0  0  0  0  0  0  0  0  0
    5.5426   -1.6000    0.0000 H   0  0  0  0  0  0  0  0  0  0  0  0
    5.5426    0.0000    0.0000 H   0  0  0  0  0  0  0  0  0  0  0  0
    4.1569   -2.4000    0.0000 H   0  0  0  0  0  0  0  0  0  0  0  0
    0.0000    0.0000    0.0000 C   0  0  0  0  0  0  0  0  0  0  0  0
   -1.3856    0.8000    0.0000 H   0  0  0  0  0  0  0  0  0  0  0  0
    0.0000    1.6000    0.0000 H   0  0  0  0  0  0  0  0  0  0  0  0
   -1.3856   -0.8000    0.0000 H   0  0  0  0  0  0  0  0  0  0  0  0
  1  2  1  0  0  0  0
  2  3  1  0  0  0  0
  3  4  1  0  0  0  0
  3  5  1  0  0  0  0
  3  6  1  0  0  0  0
  1  7  1  0  0  0  0
  7  8  1  0  0  0  0
  7  9  1  0  0  0  0
  7 10  1  0  0  0  0
M  END
> <ChemID>
102353

> <source_casrn>
7101-31-7

> <CAS>
7101-31-7

> <SMILES>
C[Se][Se]C

> <NAME>
DIMETHYL DISELENIDE

> <preferred_name>
Dimethyldiselenide

> <iupac>
methyldiselanylmethane

> <MPID>
26884

> <dsstox_substance_id>
DTXSID40221237

> <Canonical_QSARr>
C[Se][Se]C

> <InChI_Code_QSARr>
InChI=1S/C2H6Se2/c1-3-4-2/h1-2H3

> <InChI Key_QSARr>
VLXBWPOEOIIREY-UHFFFAOYSA-N

> <Salt_Solvent>
?

> <LogVP>
0.4548

$$$$
102357
  -INDIGO-08031723152D

 29 28  0  0  0  0  0  0  0  0999 V2000
   -0.0000    0.0000    0.0000 C   0  0  0  0  0  0  0  0  0  0  0  0
    1.3856    0.8000    0.0000 C   0  0  0  0  0  0  0  0  0  0  0  0
    2.6113    1.8285    0.0000 C   0  0  0  0  0  0  0  0  0  0  0  0
    3.8370    2.8569    0.0000 H   0  0  0  0  0  0  0  0  0  0  0  0
    4.1148    1.2813    0.0000 H   0  0  0  0  0  0  0  0  0  0  0  0
    2.3335    3.4042    0.0000 H   0  0  0  0  0  0  0  0  0  0  0  0
    2.4141   -0.4257    0.0000 C   0  0  0  0  0  0  0  0  0  0  0  0
    3.9897   -0.1478    0.0000 H   0  0  0  0  0  0  0  0  0  0  0  0
    3.4426   -1.6514    0.0000 H   0  0  0  0  0  0  0  0  0  0  0  0
    2.9613    1.0778    0.0000 H   0  0  0  0  0  0  0  0  0  0  0  0
    0.3572    2.0257    0.0000 C   0  0  0  0  0  0  0  0  0  0  0  0
    0.9044    3.5292    0.0000 H   0  0  0  0  0  0  0  0  0  0  0  0
   -0.0000    2.7713    0.0000 H   0  0  0  0  0  0  0  0  0  0  0  0
    1.9329    2.3035    0.0000 H   0  0  0  0  0  0  0  0  0  0  0  0
   -1.3857   -0.8000    0.0000 C   0  0  0  0  0  0  0  0  0  0  0  0
   -0.7734   -2.2782    0.0000 H   0  0  0  0  0  0  0  0  0  0  0  0
   -1.9980   -2.2782    0.0000 H   0  0  0  0  0  0  0  0  0  0  0  0
   -2.7713    0.0000    0.0000 C   0  0  0  0  0  0  0  0  0  0  0  0
   -4.1569   -0.8000    0.0000 H   0  0  0  0  0  0  0  0  0  0  0  0
   -4.1569    0.8000    0.0000 H   0  0  0  0  0  0  0  0  0  0  0  0
   -2.7713   -1.6000    0.0000 H   0  0  0  0  0  0  0  0  0  0  0  0
   -0.8000    1.3857    0.0000 C   0  0  0  0  0  0  0  0  0  0  0  0
   -1.6000    2.7713    0.0000 H   0  0  0  0  0  0  0  0  0  0  0  0
   -2.4000    1.3857    0.0000 H   0  0  0  0  0  0  0  0  0  0  0  0
   -0.7431    2.2104    0.0000 H   0  0  0  0  0  0  0  0  0  0  0  0
    0.7999   -1.3856    0.0000 C   0  0  0  0  0  0  0  0  0  0  0  0
    1.6000   -2.7713    0.0000 H   0  0  0  0  0  0  0  0  0  0  0  0
   -0.0000   -2.7713    0.0000 H   0  0  0  0  0  0  0  0  0  0  0  0
    2.4000   -1.3856    0.0000 H   0  0  0  0  0  0  0  0  0  0  0  0
  1  2  1  0  0  0  0
  2  3  1  0  0  0  0
  3  4  1  0  0  0  0
  3  5  1  0  0  0  0
  3  6  1  0  0  0  0
  2  7  1  0  0  0  0
  7  8  1  0  0  0  0
  7  9  1  0  0  0  0
  7 10  1  0  0  0  0
  2 11  1  0  0  0  0
 11 12  1  0  0  0  0
 11 13  1  0  0  0  0
 11 14  1  0  0  0  0
  1 15  1  0  0  0  0
 15 16  1  0  0  0  0
 15 17  1  0  0  0  0
 15 18  1  0  0  0  0
 18 19  1  0  0  0  0
 18 20  1  0  0  0  0
 18 21  1  0  0  0  0
  1 22  1  0  0  0  0
 22 23  1  0  0  0  0
 22 24  1  0  0  0  0
 22 25  1  0  0  0  0
  1 26  1  0  0  0  0
 26 27  1  0  0  0  0
 26 28  1  0  0  0  0
 26 29  1  0  0  0  0
M  END
> <ChemID>
102357

> <source_casrn>
7154-79-2

> <CAS>
7154-79-2

> <SMILES>
CC(C)(C)C(C)(C)CC

> <NAME>
2,2,3,3-TETRAMETHYLPENTANE

> <preferred_name>
2,2,3,3-Tetramethylpentane

> <iupac>
2,2,3,3-Tetramethylpentane

> <MPID>
26888

> <dsstox_substance_id>
DTXSID60221779

> <Canonical_QSARr>
CC(C)(C)C(C)(C)CC

> <InChI_Code_QSARr>
InChI=1S/C9H20/c1-7-9(5,6)8(2,3)4/h7H2,1-6H3

> <InChI Key_QSARr>
QUKOJKFJIHSBKV-UHFFFAOYSA-N

> <Salt_Solvent>
?

> <LogVP>
0.9756

$$$$
102361
  -INDIGO-08031723152D

 16 15  0  0  0  0  0  0  0  0999 V2000
    2.4000    1.3856    0.0000 C   0  0  0  0  0  0  0  0  0  0  0  0
    3.2000    2.7713    0.0000 N   0  0  0  0  0  0  0  0  0  0  0  0
    1.6000   -0.0000    0.0000 C   0  0  0  0  0  0  0  0  0  0  0  0
    2.8694   -0.9740    0.0000 H   0  0  0  0  0  0  0  0  0  0  0  0
    1.8089   -1.5864    0.0000 H   0  0  0  0  0  0  0  0  0  0  0  0
   -0.0000   -0.0000    0.0000 N   0  0  0  0  0  0  0  0  0  0  0  0
   -0.8000    1.3856    0.0000 C   0  0  0  0  0  0  0  0  0  0  0  0
   -0.5911    2.9720    0.0000 H   0  0  0  0  0  0  0  0  0  0  0  0
    0.4694    2.3596    0.0000 H   0  0  0  0  0  0  0  0  0  0  0  0
   -2.4000    1.3856    0.0000 C   0  0  0  0  0  0  0  0  0  0  0  0
   -4.0000    1.3856    0.0000 N   0  0  0  0  0  0  0  0  0  0  0  0
   -0.8000   -1.3857    0.0000 C   0  0  0  0  0  0  0  0  0  0  0  0
   -2.2782   -1.9980    0.0000 H   0  0  0  0  0  0  0  0  0  0  0  0
   -2.2782   -0.7733    0.0000 H   0  0  0  0  0  0  0  0  0  0  0  0
   -0.0000   -2.7713    0.0000 C   0  0  0  0  0  0  0  0  0  0  0  0
    0.8000   -4.1569    0.0000 N   0  0  0  0  0  0  0  0  0  0  0  0
  1  2  3  0  0  0  0
  1  3  1  0  0  0  0
  3  4  1  0  0  0  0
  3  5  1  0  0  0  0
  3  6  1  0  0  0  0
  6  7  1  0  0  0  0
  7  8  1  0  0  0  0
  7  9  1  0  0  0  0
  7 10  1  0  0  0  0
 10 11  3  0  0  0  0
  6 12  1  0  0  0  0
 12 13  1  0  0  0  0
 12 14  1  0  0  0  0
 12 15  1  0  0  0  0
 15 16  3  0  0  0  0
M  END
> <ChemID>
102361

> <source_casrn>
7327-60-8

> <CAS>
7327-60-8

> <SMILES>
N#CCN(CC#N)CC#N

> <NAME>
Acetonitrile, 2,2',2''-nitrilotris-

> <preferred_name>
Acetonitrile, 2,2',2''-nitrilotris-

> <iupac>
2,2',2''-nitrilotriacetonitrile

> <MPID>
26892

> <dsstox_substance_id>
DTXSID3029285

> <Canonical_QSARr>
N#CCN(CC#N)CC#N

> <InChI_Code_QSARr>
InChI=1S/C6H6N4/c7-1-4-10(5-2-8)6-3-9/h4-6H2

> <InChI Key_QSARr>
LJAIDEYQVIJERM-UHFFFAOYSA-N

> <Salt_Solvent>
?

> <LogVP>
-6.4989

$$$$
102375
  -INDIGO-08031723152D

 49 51  0  0  0  0  0  0  0  0999 V2000
    6.0256   -3.7997    0.0000 N   0  0  0  0  0  0  0  0  0  0  0  0
    6.9662   -5.0942    0.0000 C   0  0  0  0  0  0  0  0  0  0  0  0
    6.4716   -6.6158    0.0000 O   0  0  0  0  0  0  0  0  0  0  0  0
    8.4878   -4.5997    0.0000 C   0  0  0  0  0  0  0  0  0  0  0  0
    8.4878   -2.9998    0.0000 C   0  0  0  0  0  0  0  0  0  0  0  0
    9.8735   -2.1997    0.0000 C   0  0  0  0  0  0  0  0  0  0  0  0
   10.9020   -0.9741    0.0000 H   0  0  0  0  0  0  0  0  0  0  0  0
    8.8450   -0.9741    0.0000 H   0  0  0  0  0  0  0  0  0  0  0  0
   11.2592   -2.9998    0.0000 C   0  0  0  0  0  0  0  0  0  0  0  0
   12.8348   -3.2775    0.0000 H   0  0  0  0  0  0  0  0  0  0  0  0
   11.8063   -1.4963    0.0000 H   0  0  0  0  0  0  0  0  0  0  0  0
   11.2592   -4.5997    0.0000 C   0  0  0  0  0  0  0  0  0  0  0  0
   11.8063   -6.1032    0.0000 H   0  0  0  0  0  0  0  0  0  0  0  0
   12.8348   -4.3219    0.0000 H   0  0  0  0  0  0  0  0  0  0  0  0
    9.8735   -5.3998    0.0000 C   0  0  0  0  0  0  0  0  0  0  0  0
    8.8450   -6.6254    0.0000 H   0  0  0  0  0  0  0  0  0  0  0  0
   10.9020   -6.6254    0.0000 H   0  0  0  0  0  0  0  0  0  0  0  0
    6.9662   -2.5053    0.0000 C   0  0  0  0  0  0  0  0  0  0  0  0
    6.4716   -0.9837    0.0000 O   0  0  0  0  0  0  0  0  0  0  0  0
    4.4257   -3.7997    0.0000 C   0  0  0  0  0  0  0  0  0  0  0  0
    4.2167   -5.3860    0.0000 H   0  0  0  0  0  0  0  0  0  0  0  0
    3.1562   -4.7738    0.0000 H   0  0  0  0  0  0  0  0  0  0  0  0
    3.6257   -2.4141    0.0000 O   0  0  0  0  0  0  0  0  0  0  0  0
    2.0258   -2.4141    0.0000 C   0  0  0  0  0  0  0  0  0  0  0  0
    1.2257   -1.0284    0.0000 C   0  0  0  0  0  0  0  0  0  0  0  0
    2.4513   -0.0001    0.0000 H   0  0  0  0  0  0  0  0  0  0  0  0
   -0.0001   -0.0001    0.0000 C   0  0  0  0  0  0  0  0  0  0  0  0
    0.8000    1.3856    0.0000 C   0  0  0  0  0  0  0  0  0  0  0  0
    1.6001    2.7713    0.0000 H   0  0  0  0  0  0  0  0  0  0  0  0
   -0.0001    2.7713    0.0000 H   0  0  0  0  0  0  0  0  0  0  0  0
    2.3999    1.3856    0.0000 H   0  0  0  0  0  0  0  0  0  0  0  0
   -1.5034    0.5472    0.0000 C   0  0  0  0  0  0  0  0  0  0  0  0
   -1.7812    2.1229    0.0000 H   0  0  0  0  0  0  0  0  0  0  0  0
   -3.0071    1.0944    0.0000 H   0  0  0  0  0  0  0  0  0  0  0  0
   -0.2779    1.5757    0.0000 H   0  0  0  0  0  0  0  0  0  0  0  0
   -0.2779   -1.5757    0.0000 C   0  0  0  0  0  0  0  0  0  0  0  0
   -0.0001   -3.1514    0.0000 H   0  0  0  0  0  0  0  0  0  0  0  0
   -1.8778   -1.5757    0.0000 C   0  0  0  0  0  0  0  0  0  0  0  0
   -2.6778   -0.1900    0.0000 H   0  0  0  0  0  0  0  0  0  0  0  0
   -2.6778   -2.9614    0.0000 C   0  0  0  0  0  0  0  0  0  0  0  0
   -4.2780   -2.9614    0.0000 C   0  0  0  0  0  0  0  0  0  0  0  0
   -5.8778   -2.9614    0.0000 H   0  0  0  0  0  0  0  0  0  0  0  0
   -5.0778   -4.3470    0.0000 H   0  0  0  0  0  0  0  0  0  0  0  0
   -5.0778   -1.5757    0.0000 H   0  0  0  0  0  0  0  0  0  0  0  0
   -1.8778   -4.3470    0.0000 C   0  0  0  0  0  0  0  0  0  0  0  0
   -2.6778   -5.7326    0.0000 H   0  0  0  0  0  0  0  0  0  0  0  0
   -1.0780   -5.7326    0.0000 H   0  0  0  0  0  0  0  0  0  0  0  0
   -3.4779   -4.3470    0.0000 H   0  0  0  0  0  0  0  0  0  0  0  0
    1.2257   -3.7997    0.0000 O   0  0  0  0  0  0  0  0  0  0  0  0
  1  2  1  0  0  0  0
  2  3  2  0  0  0  0
  2  4  1  0  0  0  0
  4  5  2  0  0  0  0
  5  6  1  0  0  0  0
  6  7  1  0  0  0  0
  6  8  1  0  0  0  0
  6  9  1  0  0  0  0
  9 10  1  0  0  0  0
  9 11  1  0  0  0  0
  9 12  1  0  0  0  0
 12 13  1  0  0  0  0
 12 14  1  0  0  0  0
 12 15  1  0  0  0  0
 15  4  1  0  0  0  0
 15 16  1  0  0  0  0
 15 17  1  0  0  0  0
  5 18  1  0  0  0  0
 18  1  1  0  0  0  0
 18 19  2  0  0  0  0
  1 20  1  0  0  0  0
 20 21  1  0  0  0  0
 20 22  1  0  0  0  0
 20 23  1  0  0  0  0
 23 24  1  0  0  0  0
 24 25  1  0  0  0  0
 25 26  1  0  0  0  0
 25 27  1  0  0  0  0
 27 28  1  0  0  0  0
 28 29  1  0  0  0  0
 28 30  1  0  0  0  0
 28 31  1  0  0  0  0
 27 32  1  0  0  0  0
 32 33  1  0  0  0  0
 32 34  1  0  0  0  0
 32 35  1  0  0  0  0
 27 36  1  0  0  0  0
 36 25  1  0  0  0  0
 36 37  1  0  0  0  0
 36 38  1  0  0  0  0
 38 39  1  0  0  0  0
 38 40  2  0  0  0  0
 40 41  1  0  0  0  0
 41 42  1  0  0  0  0
 41 43  1  0  0  0  0
 41 44  1  0  0  0  0
 40 45  1  0  0  0  0
 45 46  1  0  0  0  0
 45 47  1  0  0  0  0
 45 48  1  0  0  0  0
 24 49  2  0  0  0  0
M  END
> <ChemID>
102375

> <source_casrn>
7696-12-0

> <CAS>
7696-12-0

> <SMILES>
CC(C)=CC1C(C(=O)OCN2C(=O)C3CCCCC=3C2=O)C1(C)C

> <NAME>
PHTHALTHRIN

> <preferred_name>
Tetramethrin

> <iupac>
(1,3-dioxo-1,3,4,5,6,7-hexahydro-2H-isoindol-2-yl)methyl (1R,3R)-2,2-dimethyl-3-(2-methylprop-1-en-1-yl)cyclopropanecarboxylate

> <MPID>
26896

> <dsstox_substance_id>
DTXSID6032649

> <Canonical_QSARr>
CC(C)=CC1C(C(=O)OCN2C(=O)C3CCCCC=3C2=O)C1(C)C

> <InChI_Code_QSARr>
InChI=1S/C19H25NO4/c1-11(2)9-14-15(19(14,3)4)18(23)24-10-20-16(21)12-7-5-6-8-13(12)17(20)22/h9,14-15H,5-8,10H2,1-4H3

> <InChI Key_QSARr>
CXBMCYHAMVGWJQ-UHFFFAOYSA-N

> <Salt_Solvent>
?

> <LogVP>
-5.15

$$$$
102393
  -INDIGO-08031723152D

 12 12  0  0  0  0  0  0  0  0999 V2000
   -3.7566    1.7404    0.0000 O   0  0  0  0  0  0  0  0  0  0  0  0
   -2.4622    0.8000    0.0000 C   0  0  0  0  0  0  0  0  0  0  0  0
   -0.9405    1.2944    0.0000 C   0  0  0  0  0  0  0  0  0  0  0  0
   -0.4461    2.8161    0.0000 H   0  0  0  0  0  0  0  0  0  0  0  0
   -0.0000    0.0000    0.0000 C   0  0  0  0  0  0  0  0  0  0  0  0
    1.6000    0.0000    0.0000 C   0  0  0  0  0  0  0  0  0  0  0  0
    3.2000    0.0000    0.0000 H   0  0  0  0  0  0  0  0  0  0  0  0
    2.4000   -1.3857    0.0000 H   0  0  0  0  0  0  0  0  0  0  0  0
    2.4000    1.3856    0.0000 H   0  0  0  0  0  0  0  0  0  0  0  0
   -0.9405   -1.2944    0.0000 O   0  0  0  0  0  0  0  0  0  0  0  0
   -2.4622   -0.8000    0.0000 N   0  0  0  0  0  0  0  0  0  0  0  0
   -3.7566   -1.7405    0.0000 H   0  0  0  0  0  0  0  0  0  0  0  0
  1  2  2  0  0  0  0
  2  3  1  0  0  0  0
  3  4  1  0  0  0  0
  3  5  2  0  0  0  0
  5  6  1  0  0  0  0
  6  7  1  0  0  0  0
  6  8  1  0  0  0  0
  6  9  1  0  0  0  0
  5 10  1  0  0  0  0
 10 11  1  0  0  0  0
 11  2  1  0  0  0  0
 11 12  1  0  0  0  0
M  END
> <ChemID>
102393

> <source_casrn>
10004-44-1

> <CAS>
10004-44-1

> <SMILES>
CC1=CC(=O)NO1

> <NAME>
3-HYDROXY-5-METHYLISOXAZOLE

> <preferred_name>
Hymexazol

> <iupac>
5-methyl-1,2-oxazol-3(2H)-one

> <MPID>
26900

> <dsstox_substance_id>
DTXSID3032622

> <Canonical_QSARr>
CC1=CC(=O)NO1

> <InChI_Code_QSARr>
InChI=1S/C4H5NO2/c1-3-2-4(6)5-7-3/h2H,1H3,(H,5,6)

> <InChI Key_QSARr>
KGVPNLBXJKTABS-UHFFFAOYSA-N

> <Salt_Solvent>
?

> <LogVP>
-2.8633

$$$$
102404
  -INDIGO-08031723152D

 40 41  0  0  0  0  0  0  0  0999 V2000
   -1.3856   -0.8001    0.0000 N   0  0  0  0  0  0  0  0  0  0  0  0
    0.0001   -0.0000    0.0000 C   0  0  0  0  0  0  0  0  0  0  0  0
   -0.8000    1.3856    0.0000 H   0  0  0  0  0  0  0  0  0  0  0  0
    0.8000   -1.3857    0.0000 S   0  0  0  0  0  0  0  0  0  0  0  0
    2.3999   -1.3857    0.0000 P   0  0  0  0  0  0  0  0  0  0  0  0
    3.2000   -2.7713    0.0000 O   0  0  0  0  0  0  0  0  0  0  0  0
    4.7999   -2.7713    0.0000 C   0  0  0  0  0  0  0  0  0  0  0  0
    5.0088   -1.1850    0.0000 H   0  0  0  0  0  0  0  0  0  0  0  0
    6.0693   -1.7973    0.0000 H   0  0  0  0  0  0  0  0  0  0  0  0
    5.6000   -4.1569    0.0000 C   0  0  0  0  0  0  0  0  0  0  0  0
    6.4001   -5.5426    0.0000 H   0  0  0  0  0  0  0  0  0  0  0  0
    7.1999   -4.1569    0.0000 H   0  0  0  0  0  0  0  0  0  0  0  0
    4.7999   -5.5426    0.0000 H   0  0  0  0  0  0  0  0  0  0  0  0
    4.0001   -1.3857    0.0000 O   0  0  0  0  0  0  0  0  0  0  0  0
    4.7999   -0.0000    0.0000 C   0  0  0  0  0  0  0  0  0  0  0  0
    3.5305    0.9740    0.0000 H   0  0  0  0  0  0  0  0  0  0  0  0
    4.5913    1.5863    0.0000 H   0  0  0  0  0  0  0  0  0  0  0  0
    6.4001   -0.0000    0.0000 C   0  0  0  0  0  0  0  0  0  0  0  0
    8.0000   -0.0000    0.0000 H   0  0  0  0  0  0  0  0  0  0  0  0
    7.1999    1.3856    0.0000 H   0  0  0  0  0  0  0  0  0  0  0  0
    7.1999   -1.3857    0.0000 H   0  0  0  0  0  0  0  0  0  0  0  0
    1.6000   -2.7713    0.0000 S   0  0  0  0  0  0  0  0  0  0  0  0
    1.3856    0.8000    0.0000 C   0  0  0  0  0  0  0  0  0  0  0  0
    2.7713    1.6000    0.0000 H   0  0  0  0  0  0  0  0  0  0  0  0
    1.3856    2.4000    0.0000 H   0  0  0  0  0  0  0  0  0  0  0  0
    2.7713   -0.0000    0.0000 Cl  0  0  0  0  0  0  0  0  0  0  0  0
   -2.8473   -0.1492    0.0000 C   0  0  0  0  0  0  0  0  0  0  0  0
   -3.1801    1.4158    0.0000 O   0  0  0  0  0  0  0  0  0  0  0  0
   -3.9180   -1.3383    0.0000 C   0  0  0  0  0  0  0  0  0  0  0  0
   -3.1179   -2.7239    0.0000 C   0  0  0  0  0  0  0  0  0  0  0  0
   -3.9180   -4.1095    0.0000 C   0  0  0  0  0  0  0  0  0  0  0  0
   -3.1179   -5.4952    0.0000 H   0  0  0  0  0  0  0  0  0  0  0  0
   -5.5179   -4.1095    0.0000 C   0  0  0  0  0  0  0  0  0  0  0  0
   -6.3180   -5.4952    0.0000 H   0  0  0  0  0  0  0  0  0  0  0  0
   -6.3180   -2.7239    0.0000 C   0  0  0  0  0  0  0  0  0  0  0  0
   -7.9179   -2.7239    0.0000 H   0  0  0  0  0  0  0  0  0  0  0  0
   -5.5179   -1.3383    0.0000 C   0  0  0  0  0  0  0  0  0  0  0  0
   -6.3180    0.0473    0.0000 H   0  0  0  0  0  0  0  0  0  0  0  0
   -1.5529   -2.3912    0.0000 C   0  0  0  0  0  0  0  0  0  0  0  0
   -0.3637   -3.4619    0.0000 O   0  0  0  0  0  0  0  0  0  0  0  0
  1  2  1  0  0  0  0
  2  3  1  0  0  0  0
  2  4  1  0  0  0  0
  4  5  1  0  0  0  0
  5  6  1  0  0  0  0
  6  7  1  0  0  0  0
  7  8  1  0  0  0  0
  7  9  1  0  0  0  0
  7 10  1  0  0  0  0
 10 11  1  0  0  0  0
 10 12  1  0  0  0  0
 10 13  1  0  0  0  0
  5 14  1  0  0  0  0
 14 15  1  0  0  0  0
 15 16  1  0  0  0  0
 15 17  1  0  0  0  0
 15 18  1  0  0  0  0
 18 19  1  0  0  0  0
 18 20  1  0  0  0  0
 18 21  1  0  0  0  0
  5 22  2  0  0  0  0
  2 23  1  0  0  0  0
 23 24  1  0  0  0  0
 23 25  1  0  0  0  0
 23 26  1  0  0  0  0
  1 27  1  0  0  0  0
 27 28  2  0  0  0  0
 27 29  1  0  0  0  0
 29 30  1  0  0  0  0
 30 31  2  0  0  0  0
 31 32  1  0  0  0  0
 31 33  1  0  0  0  0
 33 34  1  0  0  0  0
 33 35  2  0  0  0  0
 35 36  1  0  0  0  0
 35 37  1  0  0  0  0
 37 29  2  0  0  0  0
 37 38  1  0  0  0  0
 30 39  1  0  0  0  0
 39  1  1  0  0  0  0
 39 40  2  0  0  0  0
M  END
> <ChemID>
102404

> <source_casrn>
10311-84-9

> <CAS>
10311-84-9

> <SMILES>
CCOP(=S)(OCC)SC(CCl)N1C(=O)c2ccccc2C1=O

> <NAME>
DIALIFOR

> <preferred_name>
Dialifor

> <iupac>
S-[2-chloro-1-(1,3-dioxo-1,3-dihydro-2H-isoindol-2-yl)ethyl] O,O-diethyl phosphorodithioate

> <MPID>
26904

> <dsstox_substance_id>
DTXSID0037522

> <Canonical_QSARr>
CCOP(=S)(OCC)SC(CCl)N1C(=O)c2ccccc2C1=O

> <InChI_Code_QSARr>
InChI=1S/C14H17ClNO4PS2/c1-3-19-21(22,20-4-2)23-12(9-15)16-13(17)10-7-5-6-8-11(10)14(16)18/h5-8,12H,3-4,9H2,1-2H3

> <InChI Key_QSARr>
MUMQYXACQUZOFP-UHFFFAOYSA-N

> <Salt_Solvent>
?

> <LogVP>
-7.2076

$$$$
102409
  -INDIGO-08031723152D

 21 20  0  0  0  0  0  0  0  0999 V2000
    0.0001    0.0000    0.0000 C   0  0  0  0  0  0  0  0  0  0  0  0
   -0.8000    1.3857    0.0000 C   0  0  0  0  0  0  0  0  0  0  0  0
    0.4693    2.3596    0.0000 H   0  0  0  0  0  0  0  0  0  0  0  0
   -0.5911    2.9720    0.0000 H   0  0  0  0  0  0  0  0  0  0  0  0
   -2.4000    1.3857    0.0000 C   0  0  0  0  0  0  0  0  0  0  0  0
   -3.1999    2.7713    0.0000 H   0  0  0  0  0  0  0  0  0  0  0  0
   -4.0000    1.3857    0.0000 H   0  0  0  0  0  0  0  0  0  0  0  0
   -1.5999    2.7713    0.0000 H   0  0  0  0  0  0  0  0  0  0  0  0
    1.6001    0.0000    0.0000 C   0  0  0  0  0  0  0  0  0  0  0  0
    2.4000   -1.3857    0.0000 C   0  0  0  0  0  0  0  0  0  0  0  0
    3.1999   -2.7713    0.0000 H   0  0  0  0  0  0  0  0  0  0  0  0
    4.0000   -1.3857    0.0000 H   0  0  0  0  0  0  0  0  0  0  0  0
    1.5999   -2.7713    0.0000 H   0  0  0  0  0  0  0  0  0  0  0  0
    2.4000    1.3857    0.0000 C   0  0  0  0  0  0  0  0  0  0  0  0
    3.2001    2.7713    0.0000 H   0  0  0  0  0  0  0  0  0  0  0  0
    4.0000    1.3857    0.0000 H   0  0  0  0  0  0  0  0  0  0  0  0
    1.6001    2.7713    0.0000 H   0  0  0  0  0  0  0  0  0  0  0  0
   -0.8000   -1.3857    0.0000 C   0  0  0  0  0  0  0  0  0  0  0  0
   -1.6001   -2.7713    0.0000 H   0  0  0  0  0  0  0  0  0  0  0  0
   -2.4000   -1.3857    0.0000 H   0  0  0  0  0  0  0  0  0  0  0  0
   -0.0001   -2.7713    0.0000 H   0  0  0  0  0  0  0  0  0  0  0  0
  1  2  1  0  0  0  0
  2  3  1  0  0  0  0
  2  4  1  0  0  0  0
  2  5  1  0  0  0  0
  5  6  1  0  0  0  0
  5  7  1  0  0  0  0
  5  8  1  0  0  0  0
  1  9  2  0  0  0  0
  9 10  1  0  0  0  0
 10 11  1  0  0  0  0
 10 12  1  0  0  0  0
 10 13  1  0  0  0  0
  9 14  1  0  0  0  0
 14 15  1  0  0  0  0
 14 16  1  0  0  0  0
 14 17  1  0  0  0  0
  1 18  1  0  0  0  0
 18 19  1  0  0  0  0
 18 20  1  0  0  0  0
 18 21  1  0  0  0  0
M  END
> <ChemID>
102409

> <source_casrn>
10574-37-5

> <CAS>
10574-37-5

> <SMILES>
CC(C)=C(C)CC

> <NAME>
2,3-DIMETHYL-2-PENTENE

> <preferred_name>
2-Pentene, 2,3-dimethyl-

> <iupac>
2,3-dimethylpent-2-ene

> <MPID>
26908

> <dsstox_substance_id>
DTXSID00147308

> <Canonical_QSARr>
CC(C)=C(C)CC

> <InChI_Code_QSARr>
InChI=1S/C7H14/c1-5-7(4)6(2)3/h5H2,1-4H3

> <InChI Key_QSARr>
WFHALSLYRWWUGH-UHFFFAOYSA-N

> <Salt_Solvent>
?

> <LogVP>
1.7009

$$$$
102427
  -INDIGO-08031723152D

 36 35  0  0  0  0  0  0  0  0999 V2000
    7.2061    2.1810    0.0000 C   0  0  0  0  0  0  0  0  0  0  0  0
    8.4319    3.2094    0.0000 H   0  0  0  0  0  0  0  0  0  0  0  0
    6.9284    3.7567    0.0000 H   0  0  0  0  0  0  0  0  0  0  0  0
    8.7096    1.6337    0.0000 H   0  0  0  0  0  0  0  0  0  0  0  0
    5.9805    1.1525    0.0000 C   0  0  0  0  0  0  0  0  0  0  0  0
    4.8010    2.2334    0.0000 H   0  0  0  0  0  0  0  0  0  0  0  0
    4.3820    1.0827    0.0000 H   0  0  0  0  0  0  0  0  0  0  0  0
    6.2584   -0.4232    0.0000 O   0  0  0  0  0  0  0  0  0  0  0  0
    5.0328   -1.4516    0.0000 P   0  0  0  0  0  0  0  0  0  0  0  0
    5.3105   -3.0273    0.0000 S   0  0  0  0  0  0  0  0  0  0  0  0
    6.5363   -1.9989    0.0000 O   0  0  0  0  0  0  0  0  0  0  0  0
    7.7619   -0.9704    0.0000 C   0  0  0  0  0  0  0  0  0  0  0  0
    8.1082    0.5917    0.0000 H   0  0  0  0  0  0  0  0  0  0  0  0
    6.9022    0.3790    0.0000 H   0  0  0  0  0  0  0  0  0  0  0  0
    9.2654   -1.5177    0.0000 C   0  0  0  0  0  0  0  0  0  0  0  0
   10.7689   -2.0649    0.0000 H   0  0  0  0  0  0  0  0  0  0  0  0
   10.4910   -0.4892    0.0000 H   0  0  0  0  0  0  0  0  0  0  0  0
    9.5433   -3.0934    0.0000 H   0  0  0  0  0  0  0  0  0  0  0  0
    3.5293   -0.9045    0.0000 S   0  0  0  0  0  0  0  0  0  0  0  0
    2.3035   -1.9329    0.0000 C   0  0  0  0  0  0  0  0  0  0  0  0
    1.9572   -3.4949    0.0000 H   0  0  0  0  0  0  0  0  0  0  0  0
    3.1632   -3.2823    0.0000 H   0  0  0  0  0  0  0  0  0  0  0  0
    0.8000   -1.3857    0.0000 S   0  0  0  0  0  0  0  0  0  0  0  0
   -0.0000    0.0000    0.0000 C   0  0  0  0  0  0  0  0  0  0  0  0
   -1.3856   -0.8000    0.0000 C   0  0  0  0  0  0  0  0  0  0  0  0
   -2.7713   -1.6000    0.0000 H   0  0  0  0  0  0  0  0  0  0  0  0
   -2.7713    0.0000    0.0000 H   0  0  0  0  0  0  0  0  0  0  0  0
   -1.3856   -2.4000    0.0000 H   0  0  0  0  0  0  0  0  0  0  0  0
   -0.8000    1.3856    0.0000 C   0  0  0  0  0  0  0  0  0  0  0  0
   -1.6000    2.7713    0.0000 H   0  0  0  0  0  0  0  0  0  0  0  0
   -0.0000    2.7713    0.0000 H   0  0  0  0  0  0  0  0  0  0  0  0
   -2.4000    1.3856    0.0000 H   0  0  0  0  0  0  0  0  0  0  0  0
    1.3857    0.8000    0.0000 C   0  0  0  0  0  0  0  0  0  0  0  0
    2.7712    1.6000    0.0000 H   0  0  0  0  0  0  0  0  0  0  0  0
    2.7712    0.0000    0.0000 H   0  0  0  0  0  0  0  0  0  0  0  0
    1.3857    2.4000    0.0000 H   0  0  0  0  0  0  0  0  0  0  0  0
  1  2  1  0  0  0  0
  1  3  1  0  0  0  0
  1  4  1  0  0  0  0
  1  5  1  0  0  0  0
  5  6  1  0  0  0  0
  5  7  1  0  0  0  0
  5  8  1  0  0  0  0
  8  9  1  0  0  0  0
  9 10  2  0  0  0  0
  9 11  1  0  0  0  0
 11 12  1  0  0  0  0
 12 13  1  0  0  0  0
 12 14  1  0  0  0  0
 12 15  1  0  0  0  0
 15 16  1  0  0  0  0
 15 17  1  0  0  0  0
 15 18  1  0  0  0  0
  9 19  1  0  0  0  0
 19 20  1  0  0  0  0
 20 21  1  0  0  0  0
 20 22  1  0  0  0  0
 20 23  1  0  0  0  0
 23 24  1  0  0  0  0
 24 25  1  0  0  0  0
 25 26  1  0  0  0  0
 25 27  1  0  0  0  0
 25 28  1  0  0  0  0
 24 29  1  0  0  0  0
 29 30  1  0  0  0  0
 29 31  1  0  0  0  0
 29 32  1  0  0  0  0
 24 33  1  0  0  0  0
 33 34  1  0  0  0  0
 33 35  1  0  0  0  0
 33 36  1  0  0  0  0
M  END
> <ChemID>
102427

> <source_casrn>
13071-79-9

> <CAS>
13071-79-9

> <SMILES>
CC(C)(C)SCSP(=S)(OCC)OCC

> <NAME>
TERBUFOS

> <preferred_name>
Terbufos

> <iupac>
S-[(tert-butylsulfanyl)methyl] O,O-diethyl phosphorodithioate

> <MPID>
26913

> <dsstox_substance_id>
DTXSID2022254

> <Canonical_QSARr>
CC(C)(C)SCSP(=S)(OCC)OCC

> <InChI_Code_QSARr>
InChI=1S/C9H21O2PS3/c1-6-10-12(13,11-7-2)15-8-14-9(3,4)5/h6-8H2,1-5H3

> <InChI Key_QSARr>
XLNZEKHULJKQBA-UHFFFAOYSA-N

> <Salt_Solvent>
?

> <LogVP>
-3.4949

$$$$
102433
  -INDIGO-08031723152D

 45 44  0  0  0  0  0  0  0  0999 V2000
   -1.3855    0.8000    0.0000 C   0  0  0  0  0  0  0  0  0  0  0  0
   -0.7735    2.2782    0.0000 H   0  0  0  0  0  0  0  0  0  0  0  0
   -1.9978    2.2782    0.0000 H   0  0  0  0  0  0  0  0  0  0  0  0
   -0.0001    0.0000    0.0000 C   0  0  0  0  0  0  0  0  0  0  0  0
   -0.6121   -1.4782    0.0000 H   0  0  0  0  0  0  0  0  0  0  0  0
    0.6122   -1.4782    0.0000 H   0  0  0  0  0  0  0  0  0  0  0  0
    1.3855    0.8000    0.0000 C   0  0  0  0  0  0  0  0  0  0  0  0
    1.9978    2.2782    0.0000 H   0  0  0  0  0  0  0  0  0  0  0  0
    0.7732    2.2782    0.0000 H   0  0  0  0  0  0  0  0  0  0  0  0
    2.7712    0.0000    0.0000 C   0  0  0  0  0  0  0  0  0  0  0  0
    2.1589   -1.4782    0.0000 H   0  0  0  0  0  0  0  0  0  0  0  0
    3.3835   -1.4782    0.0000 H   0  0  0  0  0  0  0  0  0  0  0  0
    4.1568    0.8000    0.0000 C   0  0  0  0  0  0  0  0  0  0  0  0
    4.7692    2.2782    0.0000 H   0  0  0  0  0  0  0  0  0  0  0  0
    3.5445    2.2782    0.0000 H   0  0  0  0  0  0  0  0  0  0  0  0
    5.5425    0.0000    0.0000 C   0  0  0  0  0  0  0  0  0  0  0  0
    4.9302   -1.4782    0.0000 H   0  0  0  0  0  0  0  0  0  0  0  0
    6.1548   -1.4782    0.0000 H   0  0  0  0  0  0  0  0  0  0  0  0
    6.9282    0.8000    0.0000 C   0  0  0  0  0  0  0  0  0  0  0  0
    7.5405    2.2782    0.0000 H   0  0  0  0  0  0  0  0  0  0  0  0
    6.3158    2.2782    0.0000 H   0  0  0  0  0  0  0  0  0  0  0  0
    8.3138    0.0000    0.0000 C   0  0  0  0  0  0  0  0  0  0  0  0
    9.6995   -0.8000    0.0000 H   0  0  0  0  0  0  0  0  0  0  0  0
    9.6995    0.8000    0.0000 H   0  0  0  0  0  0  0  0  0  0  0  0
    8.3138   -1.6000    0.0000 H   0  0  0  0  0  0  0  0  0  0  0  0
   -2.7711    0.0000    0.0000 C   0  0  0  0  0  0  0  0  0  0  0  0
   -3.3834   -1.4782    0.0000 H   0  0  0  0  0  0  0  0  0  0  0  0
   -2.1592   -1.4782    0.0000 H   0  0  0  0  0  0  0  0  0  0  0  0
   -4.1568    0.8000    0.0000 C   0  0  0  0  0  0  0  0  0  0  0  0
   -3.5445    2.2782    0.0000 H   0  0  0  0  0  0  0  0  0  0  0  0
   -4.7691    2.2782    0.0000 H   0  0  0  0  0  0  0  0  0  0  0  0
   -5.5425    0.0000    0.0000 C   0  0  0  0  0  0  0  0  0  0  0  0
   -6.1548   -1.4782    0.0000 H   0  0  0  0  0  0  0  0  0  0  0  0
   -4.9301   -1.4782    0.0000 H   0  0  0  0  0  0  0  0  0  0  0  0
   -6.9281    0.8000    0.0000 C   0  0  0  0  0  0  0  0  0  0  0  0
   -6.3158    2.2782    0.0000 H   0  0  0  0  0  0  0  0  0  0  0  0
   -7.5404    2.2782    0.0000 H   0  0  0  0  0  0  0  0  0  0  0  0
   -8.3138    0.0000    0.0000 C   0  0  0  0  0  0  0  0  0  0  0  0
   -8.9261   -1.4782    0.0000 H   0  0  0  0  0  0  0  0  0  0  0  0
   -7.7015   -1.4782    0.0000 H   0  0  0  0  0  0  0  0  0  0  0  0
   -9.6994    0.8000    0.0000 C   0  0  0  0  0  0  0  0  0  0  0  0
   -9.6994    2.4000    0.0000 H   0  0  0  0  0  0  0  0  0  0  0  0
  -11.0851    0.0000    0.0000 C   0  0  0  0  0  0  0  0  0  0  0  0
  -12.4708    0.8000    0.0000 H   0  0  0  0  0  0  0  0  0  0  0  0
  -11.0851   -1.6000    0.0000 H   0  0  0  0  0  0  0  0  0  0  0  0
  1  2  1  0  0  0  0
  1  3  1  0  0  0  0
  1  4  1  0  0  0  0
  4  5  1  0  0  0  0
  4  6  1  0  0  0  0
  4  7  1  0  0  0  0
  7  8  1  0  0  0  0
  7  9  1  0  0  0  0
  7 10  1  0  0  0  0
 10 11  1  0  0  0  0
 10 12  1  0  0  0  0
 10 13  1  0  0  0  0
 13 14  1  0  0  0  0
 13 15  1  0  0  0  0
 13 16  1  0  0  0  0
 16 17  1  0  0  0  0
 16 18  1  0  0  0  0
 16 19  1  0  0  0  0
 19 20  1  0  0  0  0
 19 21  1  0  0  0  0
 19 22  1  0  0  0  0
 22 23  1  0  0  0  0
 22 24  1  0  0  0  0
 22 25  1  0  0  0  0
  1 26  1  0  0  0  0
 26 27  1  0  0  0  0
 26 28  1  0  0  0  0
 26 29  1  0  0  0  0
 29 30  1  0  0  0  0
 29 31  1  0  0  0  0
 29 32  1  0  0  0  0
 32 33  1  0  0  0  0
 32 34  1  0  0  0  0
 32 35  1  0  0  0  0
 35 36  1  0  0  0  0
 35 37  1  0  0  0  0
 35 38  1  0  0  0  0
 38 39  1  0  0  0  0
 38 40  1  0  0  0  0
 38 41  1  0  0  0  0
 41 42  1  0  0  0  0
 41 43  2  0  0  0  0
 43 44  1  0  0  0  0
 43 45  1  0  0  0  0
M  END
> <ChemID>
102433

> <source_casrn>
13360-61-7

> <CAS>
13360-61-7

> <SMILES>
CCCCCCCCCCCCCC=C

> <NAME>
1-PENTADECENE

> <preferred_name>
1-Pentadecene

> <iupac>
pentadec-1-ene

> <MPID>
26917

> <dsstox_substance_id>
DTXSID1065421

> <Canonical_QSARr>
CCCCCCCCCCCCCC=C

> <InChI_Code_QSARr>
InChI=1S/C15H30/c1-3-5-7-9-11-13-15-14-12-10-8-6-4-2/h3H,1,4-15H2,2H3

> <InChI Key_QSARr>
PJLHTVIBELQURV-UHFFFAOYSA-N

> <Salt_Solvent>
?

> <LogVP>
-2.3429

$$$$
102438
  -INDIGO-08031723152D

 38 39  0  0  0  0  0  0  0  0999 V2000
    2.7713   -0.0000    0.0000 C   0  0  0  0  0  0  0  0  0  0  0  0
    2.7713   -1.6000    0.0000 O   0  0  0  0  0  0  0  0  0  0  0  0
    4.1569    0.8000    0.0000 O   0  0  0  0  0  0  0  0  0  0  0  0
    5.5426   -0.0000    0.0000 C   0  0  0  0  0  0  0  0  0  0  0  0
    6.1550   -1.4782    0.0000 H   0  0  0  0  0  0  0  0  0  0  0  0
    4.9301   -1.4782    0.0000 H   0  0  0  0  0  0  0  0  0  0  0  0
    6.9282    0.8000    0.0000 C   0  0  0  0  0  0  0  0  0  0  0  0
    8.3138    1.6000    0.0000 H   0  0  0  0  0  0  0  0  0  0  0  0
    8.3138   -0.0000    0.0000 H   0  0  0  0  0  0  0  0  0  0  0  0
    6.9282    2.4000    0.0000 H   0  0  0  0  0  0  0  0  0  0  0  0
    1.3856    0.8000    0.0000 N   0  0  0  0  0  0  0  0  0  0  0  0
    1.3856    2.4000    0.0000 H   0  0  0  0  0  0  0  0  0  0  0  0
    0.0000   -0.0000    0.0000 C   0  0  0  0  0  0  0  0  0  0  0  0
   -1.3856    0.8000    0.0000 C   0  0  0  0  0  0  0  0  0  0  0  0
   -1.3856    2.4000    0.0000 H   0  0  0  0  0  0  0  0  0  0  0  0
   -2.7713   -0.0000    0.0000 C   0  0  0  0  0  0  0  0  0  0  0  0
   -4.1569    0.8000    0.0000 O   0  0  0  0  0  0  0  0  0  0  0  0
   -5.5426   -0.0000    0.0000 C   0  0  0  0  0  0  0  0  0  0  0  0
   -5.5426   -1.6000    0.0000 O   0  0  0  0  0  0  0  0  0  0  0  0
   -6.9282    0.8000    0.0000 N   0  0  0  0  0  0  0  0  0  0  0  0
   -6.9282    2.4000    0.0000 H   0  0  0  0  0  0  0  0  0  0  0  0
   -8.3138   -0.0000    0.0000 C   0  0  0  0  0  0  0  0  0  0  0  0
   -9.6995    0.8000    0.0000 C   0  0  0  0  0  0  0  0  0  0  0  0
   -9.6995    2.4000    0.0000 H   0  0  0  0  0  0  0  0  0  0  0  0
  -11.0851   -0.0000    0.0000 C   0  0  0  0  0  0  0  0  0  0  0  0
  -12.4708    0.8000    0.0000 H   0  0  0  0  0  0  0  0  0  0  0  0
  -11.0851   -1.6000    0.0000 C   0  0  0  0  0  0  0  0  0  0  0  0
  -12.4708   -2.4000    0.0000 H   0  0  0  0  0  0  0  0  0  0  0  0
   -9.6995   -2.4000    0.0000 C   0  0  0  0  0  0  0  0  0  0  0  0
   -9.6995   -4.0000    0.0000 H   0  0  0  0  0  0  0  0  0  0  0  0
   -8.3138   -1.6000    0.0000 C   0  0  0  0  0  0  0  0  0  0  0  0
   -6.9282   -2.4000    0.0000 H   0  0  0  0  0  0  0  0  0  0  0  0
   -2.7713   -1.6000    0.0000 C   0  0  0  0  0  0  0  0  0  0  0  0
   -4.1569   -2.4000    0.0000 H   0  0  0  0  0  0  0  0  0  0  0  0
   -1.3856   -2.4000    0.0000 C   0  0  0  0  0  0  0  0  0  0  0  0
   -1.3856   -4.0000    0.0000 H   0  0  0  0  0  0  0  0  0  0  0  0
    0.0000   -1.6000    0.0000 C   0  0  0  0  0  0  0  0  0  0  0  0
    1.3856   -2.4000    0.0000 H   0  0  0  0  0  0  0  0  0  0  0  0
  1  2  2  0  0  0  0
  1  3  1  0  0  0  0
  3  4  1  0  0  0  0
  4  5  1  0  0  0  0
  4  6  1  0  0  0  0
  4  7  1  0  0  0  0
  7  8  1  0  0  0  0
  7  9  1  0  0  0  0
  7 10  1  0  0  0  0
  1 11  1  0  0  0  0
 11 12  1  0  0  0  0
 11 13  1  0  0  0  0
 13 14  1  0  0  0  0
 14 15  1  0  0  0  0
 14 16  2  0  0  0  0
 16 17  1  0  0  0  0
 17 18  1  0  0  0  0
 18 19  2  0  0  0  0
 18 20  1  0  0  0  0
 20 21  1  0  0  0  0
 20 22  1  0  0  0  0
 22 23  1  0  0  0  0
 23 24  1  0  0  0  0
 23 25  2  0  0  0  0
 25 26  1  0  0  0  0
 25 27  1  0  0  0  0
 27 28  1  0  0  0  0
 27 29  2  0  0  0  0
 29 30  1  0  0  0  0
 29 31  1  0  0  0  0
 31 22  2  0  0  0  0
 31 32  1  0  0  0  0
 16 33  1  0  0  0  0
 33 34  1  0  0  0  0
 33 35  2  0  0  0  0
 35 36  1  0  0  0  0
 35 37  1  0  0  0  0
 37 13  2  0  0  0  0
 37 38  1  0  0  0  0
M  END
> <ChemID>
102438

> <source_casrn>
13684-56-5

> <CAS>
13684-56-5

> <SMILES>
CCOC(=O)Nc1cccc(c1)OC(=O)Nc1ccccc1

> <NAME>
DESMEDIPHAM

> <preferred_name>
Desmedipham

> <iupac>
3-[(ethoxycarbonyl)amino]phenyl phenylcarbamate

> <MPID>
26921

> <dsstox_substance_id>
DTXSID0034518

> <Canonical_QSARr>
CCOC(=O)Nc1cccc(c1)OC(=O)Nc1ccccc1

> <InChI_Code_QSARr>
InChI=1S/C16H16N2O4/c1-2-21-15(19)18-13-9-6-10-14(11-13)22-16(20)17-12-7-4-3-5-8-12/h3-11H,2H2,1H3,(H,17,20)(H,18,19)

> <InChI Key_QSARr>
WZJZMXBKUWKXTQ-UHFFFAOYSA-N

> <Salt_Solvent>
?

> <LogVP>
-8.5229

$$$$
102446
  -INDIGO-08031723152D

 34 34  0  0  0  0  0  0  0  0999 V2000
    0.0000    0.0001    0.0000 C   0  0  0  0  0  0  0  0  0  0  0  0
    1.2256    1.0284    0.0000 C   0  0  0  0  0  0  0  0  0  0  0  0
    2.4514    2.0569    0.0000 H   0  0  0  0  0  0  0  0  0  0  0  0
    2.7292    0.4812    0.0000 H   0  0  0  0  0  0  0  0  0  0  0  0
    1.2256    2.6285    0.0000 H   0  0  0  0  0  0  0  0  0  0  0  0
    1.2256   -1.0284    0.0000 C   0  0  0  0  0  0  0  0  0  0  0  0
    2.1473   -1.2677    0.0000 H   0  0  0  0  0  0  0  0  0  0  0  0
    2.7292   -0.4812    0.0000 H   0  0  0  0  0  0  0  0  0  0  0  0
    0.6784   -2.5320    0.0000 H   0  0  0  0  0  0  0  0  0  0  0  0
   -0.8000    1.3856    0.0000 C   0  0  0  0  0  0  0  0  0  0  0  0
    0.7035    1.9328    0.0000 H   0  0  0  0  0  0  0  0  0  0  0  0
   -1.0778    2.9613    0.0000 H   0  0  0  0  0  0  0  0  0  0  0  0
   -2.4001    1.3856    0.0000 C   0  0  0  0  0  0  0  0  0  0  0  0
   -2.1222    2.9613    0.0000 H   0  0  0  0  0  0  0  0  0  0  0  0
   -3.9035    1.9328    0.0000 H   0  0  0  0  0  0  0  0  0  0  0  0
   -3.2000    0.0001    0.0000 C   0  0  0  0  0  0  0  0  0  0  0  0
   -4.4256    1.0284    0.0000 H   0  0  0  0  0  0  0  0  0  0  0  0
   -4.4256   -1.0284    0.0000 H   0  0  0  0  0  0  0  0  0  0  0  0
   -2.4001   -1.3857    0.0000 C   0  0  0  0  0  0  0  0  0  0  0  0
   -3.2000   -2.7713    0.0000 C   0  0  0  0  0  0  0  0  0  0  0  0
   -4.0000   -4.1570    0.0000 H   0  0  0  0  0  0  0  0  0  0  0  0
   -4.8000   -2.7713    0.0000 H   0  0  0  0  0  0  0  0  0  0  0  0
   -2.4001   -4.1570    0.0000 H   0  0  0  0  0  0  0  0  0  0  0  0
   -0.8000   -1.3857    0.0000 C   0  0  0  0  0  0  0  0  0  0  0  0
    0.0000   -2.7713    0.0000 C   0  0  0  0  0  0  0  0  0  0  0  0
   -0.8000   -4.1570    0.0000 H   0  0  0  0  0  0  0  0  0  0  0  0
    1.6000   -2.7713    0.0000 C   0  0  0  0  0  0  0  0  0  0  0  0
    2.3293   -2.1593    0.0000 H   0  0  0  0  0  0  0  0  0  0  0  0
    2.3999   -4.1570    0.0000 C   0  0  0  0  0  0  0  0  0  0  0  0
    4.0001   -4.1570    0.0000 C   0  0  0  0  0  0  0  0  0  0  0  0
    5.6000   -4.1570    0.0000 H   0  0  0  0  0  0  0  0  0  0  0  0
    4.8000   -5.5426    0.0000 H   0  0  0  0  0  0  0  0  0  0  0  0
    4.8000   -2.7713    0.0000 H   0  0  0  0  0  0  0  0  0  0  0  0
    1.6000   -5.5426    0.0000 O   0  0  0  0  0  0  0  0  0  0  0  0
  1  2  1  0  0  0  0
  2  3  1  0  0  0  0
  2  4  1  0  0  0  0
  2  5  1  0  0  0  0
  1  6  1  0  0  0  0
  6  7  1  0  0  0  0
  6  8  1  0  0  0  0
  6  9  1  0  0  0  0
  1 10  1  0  0  0  0
 10 11  1  0  0  0  0
 10 12  1  0  0  0  0
 10 13  1  0  0  0  0
 13 14  1  0  0  0  0
 13 15  1  0  0  0  0
 13 16  1  0  0  0  0
 16 17  1  0  0  0  0
 16 18  1  0  0  0  0
 16 19  1  0  0  0  0
 19 20  1  0  0  0  0
 20 21  1  0  0  0  0
 20 22  1  0  0  0  0
 20 23  1  0  0  0  0
 19 24  2  0  0  0  0
 24  1  1  0  0  0  0
 24 25  1  0  0  0  0
 25 26  1  0  0  0  0
 25 27  2  0  0  0  0
 27 28  1  0  0  0  0
 27 29  1  0  0  0  0
 29 30  1  0  0  0  0
 30 31  1  0  0  0  0
 30 32  1  0  0  0  0
 30 33  1  0  0  0  0
 29 34  2  0  0  0  0
M  END
> <ChemID>
102446

> <source_casrn>
14901-07-6

> <CAS>
14901-07-6

> <SMILES>
CC1CCCC(C)(C)C=1C=CC(C)=O

> <NAME>
beta-Ionone

> <preferred_name>
4-(2,6,6-Trimethyl-cyclohex-1-enyl)-but-3-en-2-one

> <iupac>
4-(2,6,6-trimethylcyclohex-1-en-1-yl)but-3-en-2-one

> <MPID>
26925

> <dsstox_substance_id>
DTXSID9025451

> <Canonical_QSARr>
CC1CCCC(C)(C)C=1C=CC(C)=O

> <InChI_Code_QSARr>
InChI=1S/C13H20O/c1-10-6-5-9-13(3,4)12(10)8-7-11(2)14/h7-8H,5-6,9H2,1-4H3/b8-7+

> <InChI Key_QSARr>
PSQYTAPXSHCGMF-BQYQJAHWSA-N

> <Salt_Solvent>
?

> <LogVP>
-1.2676

$$$$
102451
  -INDIGO-08031723152D

 27 27  0  0  0  0  0  0  0  0999 V2000
    1.6001    0.0000    0.0000 C   0  0  0  0  0  0  0  0  0  0  0  0
    2.4001    1.3856    0.0000 O   0  0  0  0  0  0  0  0  0  0  0  0
    0.0000    0.0000    0.0000 N   0  0  0  0  0  0  0  0  0  0  0  0
   -0.8000    1.3856    0.0000 C   0  0  0  0  0  0  0  0  0  0  0  0
   -1.6000    2.7713    0.0000 H   0  0  0  0  0  0  0  0  0  0  0  0
   -2.4000    1.3856    0.0000 H   0  0  0  0  0  0  0  0  0  0  0  0
    0.0000    2.7713    0.0000 H   0  0  0  0  0  0  0  0  0  0  0  0
   -0.8000   -1.3856    0.0000 C   0  0  0  0  0  0  0  0  0  0  0  0
   -1.6000   -2.7713    0.0000 H   0  0  0  0  0  0  0  0  0  0  0  0
   -2.4000   -1.3856    0.0000 H   0  0  0  0  0  0  0  0  0  0  0  0
    0.0000   -2.7713    0.0000 H   0  0  0  0  0  0  0  0  0  0  0  0
    2.4001   -1.3856    0.0000 N   0  0  0  0  0  0  0  0  0  0  0  0
    1.6001   -2.7713    0.0000 H   0  0  0  0  0  0  0  0  0  0  0  0
    4.0001   -1.3856    0.0000 C   0  0  0  0  0  0  0  0  0  0  0  0
    4.7999    0.0000    0.0000 C   0  0  0  0  0  0  0  0  0  0  0  0
    4.0001    1.3856    0.0000 H   0  0  0  0  0  0  0  0  0  0  0  0
    6.3999    0.0000    0.0000 C   0  0  0  0  0  0  0  0  0  0  0  0
    7.2000    1.3856    0.0000 Cl  0  0  0  0  0  0  0  0  0  0  0  0
    7.2000   -1.3856    0.0000 C   0  0  0  0  0  0  0  0  0  0  0  0
    8.8000   -1.3856    0.0000 C   0  0  0  0  0  0  0  0  0  0  0  0
   10.4000   -1.3856    0.0000 H   0  0  0  0  0  0  0  0  0  0  0  0
    9.6000   -2.7713    0.0000 H   0  0  0  0  0  0  0  0  0  0  0  0
    9.6000    0.0000    0.0000 H   0  0  0  0  0  0  0  0  0  0  0  0
    6.3999   -2.7713    0.0000 C   0  0  0  0  0  0  0  0  0  0  0  0
    7.2000   -4.1569    0.0000 H   0  0  0  0  0  0  0  0  0  0  0  0
    4.7999   -2.7713    0.0000 C   0  0  0  0  0  0  0  0  0  0  0  0
    3.9999   -4.1569    0.0000 H   0  0  0  0  0  0  0  0  0  0  0  0
  1  2  2  0  0  0  0
  1  3  1  0  0  0  0
  3  4  1  0  0  0  0
  4  5  1  0  0  0  0
  4  6  1  0  0  0  0
  4  7  1  0  0  0  0
  3  8  1  0  0  0  0
  8  9  1  0  0  0  0
  8 10  1  0  0  0  0
  8 11  1  0  0  0  0
  1 12  1  0  0  0  0
 12 13  1  0  0  0  0
 12 14  1  0  0  0  0
 14 15  1  0  0  0  0
 15 16  1  0  0  0  0
 15 17  2  0  0  0  0
 17 18  1  0  0  0  0
 17 19  1  0  0  0  0
 19 20  1  0  0  0  0
 20 21  1  0  0  0  0
 20 22  1  0  0  0  0
 20 23  1  0  0  0  0
 19 24  2  0  0  0  0
 24 25  1  0  0  0  0
 24 26  1  0  0  0  0
 26 14  2  0  0  0  0
 26 27  1  0  0  0  0
M  END
> <ChemID>
102451

> <source_casrn>
15545-48-9

> <CAS>
15545-48-9

> <SMILES>
Cc1ccc(cc1Cl)NC(=O)N(C)C

> <NAME>
CHLORTOLURON

> <preferred_name>
Chlorotoluron

> <iupac>
3-(3-chloro-4-methylphenyl)-1,1-dimethylurea

> <MPID>
26930

> <dsstox_substance_id>
DTXSID8052853

> <Canonical_QSARr>
Cc1ccc(cc1Cl)NC(=O)N(C)C

> <InChI_Code_QSARr>
InChI=1S/C10H13ClN2O/c1-7-4-5-8(6-9(7)11)12-10(14)13(2)3/h4-6H,1-3H3,(H,12,14)

> <InChI Key_QSARr>
JXCGFZXSOMJFOA-UHFFFAOYSA-N

> <Salt_Solvent>
?

> <LogVP>
-7.4437

$$$$
102456
  -INDIGO-08031723152D

 36 36  0  0  0  0  0  0  0  0999 V2000
    3.5292   -1.8668    0.0000 C   0  0  0  0  0  0  0  0  0  0  0  0
    3.8071   -0.2912    0.0000 O   0  0  0  0  0  0  0  0  0  0  0  0
    2.0256   -2.4141    0.0000 O   0  0  0  0  0  0  0  0  0  0  0  0
    0.8001   -1.3856    0.0000 C   0  0  0  0  0  0  0  0  0  0  0  0
    2.0256   -0.3572    0.0000 H   0  0  0  0  0  0  0  0  0  0  0  0
   -0.0000   -0.0000    0.0000 C   0  0  0  0  0  0  0  0  0  0  0  0
    1.5035    0.5472    0.0000 H   0  0  0  0  0  0  0  0  0  0  0  0
   -0.2779    1.5757    0.0000 C   0  0  0  0  0  0  0  0  0  0  0  0
   -1.3221    1.5757    0.0000 H   0  0  0  0  0  0  0  0  0  0  0  0
   -1.0779    2.9614    0.0000 C   0  0  0  0  0  0  0  0  0  0  0  0
   -1.8778    4.3470    0.0000 H   0  0  0  0  0  0  0  0  0  0  0  0
   -0.2779    4.3470    0.0000 H   0  0  0  0  0  0  0  0  0  0  0  0
   -2.6778    2.9614    0.0000 H   0  0  0  0  0  0  0  0  0  0  0  0
    1.1078    2.3756    0.0000 C   0  0  0  0  0  0  0  0  0  0  0  0
    2.4934    3.1758    0.0000 H   0  0  0  0  0  0  0  0  0  0  0  0
    1.1078    3.9757    0.0000 H   0  0  0  0  0  0  0  0  0  0  0  0
    2.4934    1.5757    0.0000 H   0  0  0  0  0  0  0  0  0  0  0  0
   -1.6000   -0.0000    0.0000 C   0  0  0  0  0  0  0  0  0  0  0  0
   -1.7813    1.0284    0.0000 H   0  0  0  0  0  0  0  0  0  0  0  0
   -3.1035    0.5472    0.0000 H   0  0  0  0  0  0  0  0  0  0  0  0
   -2.3999   -1.3856    0.0000 C   0  0  0  0  0  0  0  0  0  0  0  0
   -3.6257   -0.3572    0.0000 H   0  0  0  0  0  0  0  0  0  0  0  0
   -3.6257   -2.4141    0.0000 H   0  0  0  0  0  0  0  0  0  0  0  0
   -1.6000   -2.7713    0.0000 C   0  0  0  0  0  0  0  0  0  0  0  0
   -1.3221   -4.3469    0.0000 H   0  0  0  0  0  0  0  0  0  0  0  0
   -2.9856   -3.5713    0.0000 C   0  0  0  0  0  0  0  0  0  0  0  0
   -4.3713   -4.3713    0.0000 H   0  0  0  0  0  0  0  0  0  0  0  0
   -2.9856   -5.1713    0.0000 H   0  0  0  0  0  0  0  0  0  0  0  0
   -4.3713   -2.7713    0.0000 H   0  0  0  0  0  0  0  0  0  0  0  0
   -0.0000   -2.7713    0.0000 C   0  0  0  0  0  0  0  0  0  0  0  0
   -0.2779   -4.3469    0.0000 H   0  0  0  0  0  0  0  0  0  0  0  0
    1.5035   -3.3185    0.0000 H   0  0  0  0  0  0  0  0  0  0  0  0
    4.7548   -2.8954    0.0000 C   0  0  0  0  0  0  0  0  0  0  0  0
    5.9805   -3.9238    0.0000 H   0  0  0  0  0  0  0  0  0  0  0  0
    6.2584   -2.3481    0.0000 H   0  0  0  0  0  0  0  0  0  0  0  0
    4.4769   -4.4711    0.0000 H   0  0  0  0  0  0  0  0  0  0  0  0
  1  2  2  0  0  0  0
  1  3  1  0  0  0  0
  3  4  1  0  0  0  0
  4  5  1  0  0  0  0
  4  6  1  0  0  0  0
  6  7  1  0  0  0  0
  6  8  1  0  0  0  0
  8  9  1  0  0  0  0
  8 10  1  0  0  0  0
 10 11  1  0  0  0  0
 10 12  1  0  0  0  0
 10 13  1  0  0  0  0
  8 14  1  0  0  0  0
 14 15  1  0  0  0  0
 14 16  1  0  0  0  0
 14 17  1  0  0  0  0
  6 18  1  0  0  0  0
 18 19  1  0  0  0  0
 18 20  1  0  0  0  0
 18 21  1  0  0  0  0
 21 22  1  0  0  0  0
 21 23  1  0  0  0  0
 21 24  1  0  0  0  0
 24 25  1  0  0  0  0
 24 26  1  0  0  0  0
 26 27  1  0  0  0  0
 26 28  1  0  0  0  0
 26 29  1  0  0  0  0
 24 30  1  0  0  0  0
 30  4  1  0  0  0  0
 30 31  1  0  0  0  0
 30 32  1  0  0  0  0
  1 33  1  0  0  0  0
 33 34  1  0  0  0  0
 33 35  1  0  0  0  0
 33 36  1  0  0  0  0
M  END
> <ChemID>
102456

> <source_casrn>
16409-45-3

> <CAS>
2623-23-6

> <SMILES>
CC(C)[C@@H]1CC[C@@H](C)C[C@H]1OC(C)=O

> <NAME>
dl-MENTHYL ACETATE

> <preferred_name>
L-Menthyl acetate

> <iupac>
(1R,2S,5R)-5-methyl-2-(propan-2-yl)cyclohexyl acetate

> <MPID>
26934

> <dsstox_substance_id>
DTXSID7051472

> <Canonical_QSARr>
CC(C)C1CCC(C)CC1OC(C)=O

> <InChI_Code_QSARr>
InChI=1S/C12H22O2/c1-8(2)11-6-5-9(3)7-12(11)14-10(4)13/h8-9,11-12H,5-7H2,1-4H3

> <InChI Key_QSARr>
XHXUANMFYXWVNG-UHFFFAOYSA-N

> <Salt_Solvent>
?

> <LogVP>
-0.983

$$$$
102461
  -INDIGO-08031723152D

 13 12  0  0  0  0  0  0  0  0999 V2000
   -1.3856    0.8000    0.0000 P   0  0  0  0  0  0  0  0  0  0  0  0
    0.0000    0.0000    0.0000 C   0  0  0  0  0  0  0  0  0  0  0  0
   -0.6123   -1.4782    0.0000 H   0  0  0  0  0  0  0  0  0  0  0  0
    0.6123   -1.4782    0.0000 H   0  0  0  0  0  0  0  0  0  0  0  0
    1.3856    0.8000    0.0000 C   0  0  0  0  0  0  0  0  0  0  0  0
    2.7713    1.6000    0.0000 H   0  0  0  0  0  0  0  0  0  0  0  0
    2.7713    0.0000    0.0000 H   0  0  0  0  0  0  0  0  0  0  0  0
    1.3856    2.4000    0.0000 Cl  0  0  0  0  0  0  0  0  0  0  0  0
   -1.3856    2.4000    0.0000 O   0  0  0  0  0  0  0  0  0  0  0  0
   -2.7713    1.6000    0.0000 O   0  0  0  0  0  0  0  0  0  0  0  0
   -4.1569    0.8000    0.0000 H   0  0  0  0  0  0  0  0  0  0  0  0
   -2.7713    0.0000    0.0000 O   0  0  0  0  0  0  0  0  0  0  0  0
   -2.7713   -1.6000    0.0000 H   0  0  0  0  0  0  0  0  0  0  0  0
  1  2  1  0  0  0  0
  2  3  1  0  0  0  0
  2  4  1  0  0  0  0
  2  5  1  0  0  0  0
  5  6  1  0  0  0  0
  5  7  1  0  0  0  0
  5  8  1  0  0  0  0
  1  9  2  0  0  0  0
  1 10  1  0  0  0  0
 10 11  1  0  0  0  0
  1 12  1  0  0  0  0
 12 13  1  0  0  0  0
M  END
> <ChemID>
102461

> <source_casrn>
16672-87-0

> <CAS>
16672-87-0

> <SMILES>
OP(O)(=O)CCCl

> <NAME>
ETHEPHON

> <preferred_name>
Ethephon

> <iupac>
(2-chloroethyl)phosphonic acid

> <MPID>
26939

> <dsstox_substance_id>
DTXSID7024085

> <Canonical_QSARr>
OP(O)(=O)CCCl

> <InChI_Code_QSARr>
InChI=1S/C2H6ClO3P/c3-1-2-7(4,5)6/h1-2H2,(H2,4,5,6)

> <InChI Key_QSARr>
UDPGUMQDCGORJQ-UHFFFAOYSA-N

> <Salt_Solvent>
?

> <LogVP>
-7.0088

$$$$
102465
  -INDIGO-08031723152D

 29 28  0  0  0  0  0  0  0  0999 V2000
    0.0000   -0.0000    0.0000 C   0  0  0  0  0  0  0  0  0  0  0  0
    1.3856   -0.8000    0.0000 C   0  0  0  0  0  0  0  0  0  0  0  0
    1.9979   -2.2782    0.0000 H   0  0  0  0  0  0  0  0  0  0  0  0
    0.7733   -2.2782    0.0000 H   0  0  0  0  0  0  0  0  0  0  0  0
    2.7712   -0.0000    0.0000 C   0  0  0  0  0  0  0  0  0  0  0  0
    1.9713    1.3856    0.0000 H   0  0  0  0  0  0  0  0  0  0  0  0
    4.1570    0.8001    0.0000 C   0  0  0  0  0  0  0  0  0  0  0  0
    5.5426    1.6000    0.0000 H   0  0  0  0  0  0  0  0  0  0  0  0
    5.5426   -0.0000    0.0000 H   0  0  0  0  0  0  0  0  0  0  0  0
    4.1570    2.4000    0.0000 H   0  0  0  0  0  0  0  0  0  0  0  0
    3.5713   -1.3857    0.0000 C   0  0  0  0  0  0  0  0  0  0  0  0
    4.3713   -2.7713    0.0000 H   0  0  0  0  0  0  0  0  0  0  0  0
    3.0240   -2.8891    0.0000 H   0  0  0  0  0  0  0  0  0  0  0  0
    5.1712   -1.3857    0.0000 H   0  0  0  0  0  0  0  0  0  0  0  0
   -1.3856    0.7999    0.0000 C   0  0  0  0  0  0  0  0  0  0  0  0
   -2.9116    0.3189    0.0000 H   0  0  0  0  0  0  0  0  0  0  0  0
   -2.1244   -0.6192    0.0000 H   0  0  0  0  0  0  0  0  0  0  0  0
   -1.6635    2.3757    0.0000 C   0  0  0  0  0  0  0  0  0  0  0  0
   -3.1670    2.9229    0.0000 H   0  0  0  0  0  0  0  0  0  0  0  0
   -1.9413    3.9514    0.0000 H   0  0  0  0  0  0  0  0  0  0  0  0
   -2.8891    1.3472    0.0000 H   0  0  0  0  0  0  0  0  0  0  0  0
    0.8001    1.3856    0.0000 C   0  0  0  0  0  0  0  0  0  0  0  0
    0.2528    2.8891    0.0000 H   0  0  0  0  0  0  0  0  0  0  0  0
    1.8284    2.6114    0.0000 H   0  0  0  0  0  0  0  0  0  0  0  0
   -0.7757    1.6635    0.0000 H   0  0  0  0  0  0  0  0  0  0  0  0
   -0.8001   -1.3857    0.0000 C   0  0  0  0  0  0  0  0  0  0  0  0
   -1.6000   -2.7713    0.0000 H   0  0  0  0  0  0  0  0  0  0  0  0
   -2.3757   -1.6635    0.0000 H   0  0  0  0  0  0  0  0  0  0  0  0
   -0.2528   -2.8891    0.0000 H   0  0  0  0  0  0  0  0  0  0  0  0
  1  2  1  0  0  0  0
  2  3  1  0  0  0  0
  2  4  1  0  0  0  0
  2  5  1  0  0  0  0
  5  6  1  0  0  0  0
  5  7  1  0  0  0  0
  7  8  1  0  0  0  0
  7  9  1  0  0  0  0
  7 10  1  0  0  0  0
  5 11  1  0  0  0  0
 11 12  1  0  0  0  0
 11 13  1  0  0  0  0
 11 14  1  0  0  0  0
  1 15  1  0  0  0  0
 15 16  1  0  0  0  0
 15 17  1  0  0  0  0
 15 18  1  0  0  0  0
 18 19  1  0  0  0  0
 18 20  1  0  0  0  0
 18 21  1  0  0  0  0
  1 22  1  0  0  0  0
 22 23  1  0  0  0  0
 22 24  1  0  0  0  0
 22 25  1  0  0  0  0
  1 26  1  0  0  0  0
 26 27  1  0  0  0  0
 26 28  1  0  0  0  0
 26 29  1  0  0  0  0
M  END
> <ChemID>
102465

> <source_casrn>
16747-30-1

> <CAS>
16747-30-1

> <SMILES>
CCC(C)(C)CC(C)C

> <NAME>
2,4,4-TRIMETHYLHEXANE

> <preferred_name>
2,4,4-Trimethylhexane

> <iupac>
2,4,4-TRIMETHYLHEXANE

> <MPID>
26943

> <dsstox_substance_id>
DTXSID90168289

> <Canonical_QSARr>
CCC(C)(C)CC(C)C

> <InChI_Code_QSARr>
InChI=1S/C9H20/c1-6-9(4,5)7-8(2)3/h8H,6-7H2,1-5H3

> <InChI Key_QSARr>
SVEMKBCPZYWEPH-UHFFFAOYSA-N

> <Salt_Solvent>
?

> <LogVP>
1.1259

$$$$
102469
  -INDIGO-08031723152D

 32 31  0  0  0  0  0  0  0  0999 V2000
    0.7999   -1.3856    0.0000 C   0  0  0  0  0  0  0  0  0  0  0  0
    1.6000   -2.7712    0.0000 H   0  0  0  0  0  0  0  0  0  0  0  0
    0.2527   -2.8891    0.0000 H   0  0  0  0  0  0  0  0  0  0  0  0
    2.4000   -1.3856    0.0000 H   0  0  0  0  0  0  0  0  0  0  0  0
    0.0000    0.0000    0.0000 C   0  0  0  0  0  0  0  0  0  0  0  0
   -1.3856   -0.8000    0.0000 C   0  0  0  0  0  0  0  0  0  0  0  0
   -1.9980   -2.2782    0.0000 H   0  0  0  0  0  0  0  0  0  0  0  0
   -0.7733   -2.2782    0.0000 H   0  0  0  0  0  0  0  0  0  0  0  0
   -2.7713    0.0000    0.0000 C   0  0  0  0  0  0  0  0  0  0  0  0
   -1.9713    1.3857    0.0000 H   0  0  0  0  0  0  0  0  0  0  0  0
   -4.1570    0.8000    0.0000 C   0  0  0  0  0  0  0  0  0  0  0  0
   -4.9569   -0.5856    0.0000 H   0  0  0  0  0  0  0  0  0  0  0  0
   -5.6604    1.3472    0.0000 C   0  0  0  0  0  0  0  0  0  0  0  0
   -7.1639    1.8944    0.0000 H   0  0  0  0  0  0  0  0  0  0  0  0
   -6.8861    0.3187    0.0000 H   0  0  0  0  0  0  0  0  0  0  0  0
   -5.9383    2.9229    0.0000 H   0  0  0  0  0  0  0  0  0  0  0  0
   -3.3569    2.1856    0.0000 C   0  0  0  0  0  0  0  0  0  0  0  0
   -4.1570    3.5713    0.0000 H   0  0  0  0  0  0  0  0  0  0  0  0
   -2.5569    3.5713    0.0000 H   0  0  0  0  0  0  0  0  0  0  0  0
   -4.9569    2.1856    0.0000 H   0  0  0  0  0  0  0  0  0  0  0  0
   -3.5712   -1.3856    0.0000 C   0  0  0  0  0  0  0  0  0  0  0  0
   -4.3713   -2.7712    0.0000 H   0  0  0  0  0  0  0  0  0  0  0  0
   -3.0240   -2.8891    0.0000 H   0  0  0  0  0  0  0  0  0  0  0  0
   -5.1470   -1.6635    0.0000 H   0  0  0  0  0  0  0  0  0  0  0  0
    1.5034    0.5472    0.0000 C   0  0  0  0  0  0  0  0  0  0  0  0
    3.0070    1.0945    0.0000 H   0  0  0  0  0  0  0  0  0  0  0  0
    2.7292   -0.4812    0.0000 H   0  0  0  0  0  0  0  0  0  0  0  0
    1.7814    2.1229    0.0000 H   0  0  0  0  0  0  0  0  0  0  0  0
   -0.8000    1.3857    0.0000 C   0  0  0  0  0  0  0  0  0  0  0  0
   -1.6001    2.7713    0.0000 H   0  0  0  0  0  0  0  0  0  0  0  0
    0.0000    2.7713    0.0000 H   0  0  0  0  0  0  0  0  0  0  0  0
    0.7999    1.3857    0.0000 H   0  0  0  0  0  0  0  0  0  0  0  0
  1  2  1  0  0  0  0
  1  3  1  0  0  0  0
  1  4  1  0  0  0  0
  1  5  1  0  0  0  0
  5  6  1  0  0  0  0
  6  7  1  0  0  0  0
  6  8  1  0  0  0  0
  6  9  1  0  0  0  0
  9 10  1  0  0  0  0
  9 11  1  0  0  0  0
 11 12  1  0  0  0  0
 11 13  1  0  0  0  0
 13 14  1  0  0  0  0
 13 15  1  0  0  0  0
 13 16  1  0  0  0  0
 11 17  1  0  0  0  0
 17 18  1  0  0  0  0
 17 19  1  0  0  0  0
 17 20  1  0  0  0  0
  9 21  1  0  0  0  0
 21 22  1  0  0  0  0
 21 23  1  0  0  0  0
 21 24  1  0  0  0  0
  5 25  1  0  0  0  0
 25 26  1  0  0  0  0
 25 27  1  0  0  0  0
 25 28  1  0  0  0  0
  5 29  1  0  0  0  0
 29 30  1  0  0  0  0
 29 31  1  0  0  0  0
 29 32  1  0  0  0  0
M  END
> <ChemID>
102469

> <source_casrn>
16747-42-5

> <CAS>
NOCAS_871264

> <SMILES>
CC(C)C(C)CC(C)(C)C

> <NAME>
2,2,4,5-TETRAMETHYLHEXANE

> <preferred_name>


> <iupac>


> <MPID>
26947

> <dsstox_substance_id>
DTXSID70871264

> <Canonical_QSARr>
CC(C)C(C)CC(C)(C)C

> <InChI_Code_QSARr>
InChI=1S/C10H22/c1-8(2)9(3)7-10(4,5)6/h8-9H,7H2,1-6H3

> <InChI Key_QSARr>
KDRZICOOQNIJDN-UHFFFAOYSA-N

> <Salt_Solvent>
?

> <LogVP>
0.7795

$$$$
102473
  -INDIGO-08031723152D

 47 48  0  0  0  0  0  0  0  0999 V2000
    2.0507    2.0508    0.0000 C   0  0  0  0  0  0  0  0  0  0  0  0
    3.5542    2.5979    0.0000 H   0  0  0  0  0  0  0  0  0  0  0  0
    2.3286    3.6264    0.0000 H   0  0  0  0  0  0  0  0  0  0  0  0
    3.2765    1.0223    0.0000 H   0  0  0  0  0  0  0  0  0  0  0  0
    0.5472    1.5036    0.0000 N   0  0  0  0  0  0  0  0  0  0  0  0
   -0.4812    2.7292    0.0000 C   0  0  0  0  0  0  0  0  0  0  0  0
   -1.5097    3.9549    0.0000 H   0  0  0  0  0  0  0  0  0  0  0  0
    0.0659    4.2327    0.0000 H   0  0  0  0  0  0  0  0  0  0  0  0
   -2.0568    2.4513    0.0000 H   0  0  0  0  0  0  0  0  0  0  0  0
   -0.0000   -0.0000    0.0000 C   0  0  0  0  0  0  0  0  0  0  0  0
   -1.5036    0.5473    0.0000 H   0  0  0  0  0  0  0  0  0  0  0  0
    1.5035   -0.5472    0.0000 C   0  0  0  0  0  0  0  0  0  0  0  0
    3.0295   -0.0661    0.0000 H   0  0  0  0  0  0  0  0  0  0  0  0
    2.2423    0.8720    0.0000 H   0  0  0  0  0  0  0  0  0  0  0  0
    1.7815   -2.1230    0.0000 S   0  0  0  0  0  0  0  0  0  0  0  0
    3.2847   -2.6702    0.0000 S   0  0  0  0  0  0  0  0  0  0  0  0
    4.7883   -3.2173    0.0000 C   0  0  0  0  0  0  0  0  0  0  0  0
    6.0141   -2.1889    0.0000 C   0  0  0  0  0  0  0  0  0  0  0  0
    5.7362   -0.6132    0.0000 H   0  0  0  0  0  0  0  0  0  0  0  0
    7.5177   -2.7362    0.0000 C   0  0  0  0  0  0  0  0  0  0  0  0
    8.7432   -1.7077    0.0000 H   0  0  0  0  0  0  0  0  0  0  0  0
    7.7953   -4.3118    0.0000 C   0  0  0  0  0  0  0  0  0  0  0  0
    9.2989   -4.8592    0.0000 H   0  0  0  0  0  0  0  0  0  0  0  0
    6.5698   -5.3403    0.0000 C   0  0  0  0  0  0  0  0  0  0  0  0
    6.8474   -6.9161    0.0000 H   0  0  0  0  0  0  0  0  0  0  0  0
    5.0662   -4.7931    0.0000 C   0  0  0  0  0  0  0  0  0  0  0  0
    3.8406   -5.8216    0.0000 H   0  0  0  0  0  0  0  0  0  0  0  0
    2.7375   -4.1736    0.0000 O   0  0  0  0  0  0  0  0  0  0  0  0
    3.8322   -1.1667    0.0000 O   0  0  0  0  0  0  0  0  0  0  0  0
   -0.8001   -1.3857    0.0000 C   0  0  0  0  0  0  0  0  0  0  0  0
   -0.5911   -2.9719    0.0000 H   0  0  0  0  0  0  0  0  0  0  0  0
    0.4693   -2.3596    0.0000 H   0  0  0  0  0  0  0  0  0  0  0  0
   -2.4000   -1.3857    0.0000 S   0  0  0  0  0  0  0  0  0  0  0  0
   -3.2001   -2.7712    0.0000 S   0  0  0  0  0  0  0  0  0  0  0  0
   -3.9999   -4.1569    0.0000 C   0  0  0  0  0  0  0  0  0  0  0  0
   -3.2001   -5.5426    0.0000 C   0  0  0  0  0  0  0  0  0  0  0  0
   -1.5999   -5.5426    0.0000 H   0  0  0  0  0  0  0  0  0  0  0  0
   -3.9999   -6.9281    0.0000 C   0  0  0  0  0  0  0  0  0  0  0  0
   -3.2001   -8.3138    0.0000 H   0  0  0  0  0  0  0  0  0  0  0  0
   -5.6000   -6.9281    0.0000 C   0  0  0  0  0  0  0  0  0  0  0  0
   -6.4001   -8.3138    0.0000 H   0  0  0  0  0  0  0  0  0  0  0  0
   -6.4001   -5.5426    0.0000 C   0  0  0  0  0  0  0  0  0  0  0  0
   -8.0000   -5.5426    0.0000 H   0  0  0  0  0  0  0  0  0  0  0  0
   -5.6000   -4.1569    0.0000 C   0  0  0  0  0  0  0  0  0  0  0  0
   -6.4001   -2.7712    0.0000 H   0  0  0  0  0  0  0  0  0  0  0  0
   -1.8143   -3.5713    0.0000 O   0  0  0  0  0  0  0  0  0  0  0  0
   -4.5856   -1.9714    0.0000 O   0  0  0  0  0  0  0  0  0  0  0  0
  1  2  1  0  0  0  0
  1  3  1  0  0  0  0
  1  4  1  0  0  0  0
  1  5  1  0  0  0  0
  5  6  1  0  0  0  0
  6  7  1  0  0  0  0
  6  8  1  0  0  0  0
  6  9  1  0  0  0  0
  5 10  1  0  0  0  0
 10 11  1  0  0  0  0
 10 12  1  0  0  0  0
 12 13  1  0  0  0  0
 12 14  1  0  0  0  0
 12 15  1  0  0  0  0
 15 16  1  0  0  0  0
 16 17  1  0  0  0  0
 17 18  1  0  0  0  0
 18 19  1  0  0  0  0
 18 20  2  0  0  0  0
 20 21  1  0  0  0  0
 20 22  1  0  0  0  0
 22 23  1  0  0  0  0
 22 24  2  0  0  0  0
 24 25  1  0  0  0  0
 24 26  1  0  0  0  0
 26 17  2  0  0  0  0
 26 27  1  0  0  0  0
 16 28  2  0  0  0  0
 16 29  2  0  0  0  0
 10 30  1  0  0  0  0
 30 31  1  0  0  0  0
 30 32  1  0  0  0  0
 30 33  1  0  0  0  0
 33 34  1  0  0  0  0
 34 35  1  0  0  0  0
 35 36  1  0  0  0  0
 36 37  1  0  0  0  0
 36 38  2  0  0  0  0
 38 39  1  0  0  0  0
 38 40  1  0  0  0  0
 40 41  1  0  0  0  0
 40 42  2  0  0  0  0
 42 43  1  0  0  0  0
 42 44  1  0  0  0  0
 44 35  2  0  0  0  0
 44 45  1  0  0  0  0
 34 46  2  0  0  0  0
 34 47  2  0  0  0  0
M  END
> <ChemID>
102473

> <source_casrn>
17606-31-4

> <CAS>
17606-31-4

> <SMILES>
CN(C)C(CSS(=O)(=O)c1ccccc1)CSS(=O)(=O)c1ccccc1

> <NAME>
BENSULTAP

> <preferred_name>
Bensultap

> <iupac>
S,S'-[2-(dimethylamino)propane-1,3-diyl] dibenzenesulfonothioate

> <MPID>
26951

> <dsstox_substance_id>
DTXSID6058001

> <Canonical_QSARr>
CN(C)C(CSS(=O)(=O)c1ccccc1)CSS(=O)(=O)c1ccccc1

> <InChI_Code_QSARr>
InChI=1S/C17H21NO4S4/c1-18(2)15(13-23-25(19,20)16-9-5-3-6-10-16)14-24-26(21,22)17-11-7-4-8-12-17/h3-12,15H,13-14H2,1-2H3

> <InChI Key_QSARr>
YFXPPSKYMBTNAV-UHFFFAOYSA-N

> <Salt_Solvent>
?

> <LogVP>
-5.8013

$$$$
102477
  -INDIGO-08031723152D

 47 46  0  0  0  0  0  0  0  0999 V2000
    0.8001   -1.3856    0.0000 O   0  0  0  0  0  0  0  0  0  0  0  0
    2.3757   -1.6635    0.0000 Si  0  0  0  0  0  0  0  0  0  0  0  0
    3.9514   -1.3856    0.0000 O   0  0  0  0  0  0  0  0  0  0  0  0
    5.4549   -1.9328    0.0000 Si  0  0  0  0  0  0  0  0  0  0  0  0
    7.0306   -2.2107    0.0000 C   0  0  0  0  0  0  0  0  0  0  0  0
    8.6063   -2.4885    0.0000 H   0  0  0  0  0  0  0  0  0  0  0  0
    8.0591   -0.9851    0.0000 H   0  0  0  0  0  0  0  0  0  0  0  0
    7.5778   -3.7143    0.0000 H   0  0  0  0  0  0  0  0  0  0  0  0
    6.0021   -0.4294    0.0000 C   0  0  0  0  0  0  0  0  0  0  0  0
    6.5493    1.0742    0.0000 H   0  0  0  0  0  0  0  0  0  0  0  0
    7.5778   -0.1516    0.0000 H   0  0  0  0  0  0  0  0  0  0  0  0
    4.9737    0.7963    0.0000 H   0  0  0  0  0  0  0  0  0  0  0  0
    4.9077   -3.4364    0.0000 C   0  0  0  0  0  0  0  0  0  0  0  0
    5.9361   -4.6620    0.0000 H   0  0  0  0  0  0  0  0  0  0  0  0
    3.6820   -2.4080    0.0000 H   0  0  0  0  0  0  0  0  0  0  0  0
    6.4834   -3.1586    0.0000 H   0  0  0  0  0  0  0  0  0  0  0  0
    2.9230   -3.1671    0.0000 O   0  0  0  0  0  0  0  0  0  0  0  0
    1.8945   -4.3926    0.0000 Si  0  0  0  0  0  0  0  0  0  0  0  0
    0.8660   -5.6184    0.0000 C   0  0  0  0  0  0  0  0  0  0  0  0
   -0.1624   -6.8439    0.0000 H   0  0  0  0  0  0  0  0  0  0  0  0
   -0.7340   -5.6184    0.0000 H   0  0  0  0  0  0  0  0  0  0  0  0
    1.1438   -7.1940    0.0000 H   0  0  0  0  0  0  0  0  0  0  0  0
    3.1202   -5.4211    0.0000 C   0  0  0  0  0  0  0  0  0  0  0  0
    2.8422   -6.9969    0.0000 H   0  0  0  0  0  0  0  0  0  0  0  0
    1.7344   -6.2212    0.0000 H   0  0  0  0  0  0  0  0  0  0  0  0
    4.3459   -6.4496    0.0000 H   0  0  0  0  0  0  0  0  0  0  0  0
    0.6688   -3.3642    0.0000 C   0  0  0  0  0  0  0  0  0  0  0  0
   -0.9069   -3.6421    0.0000 H   0  0  0  0  0  0  0  0  0  0  0  0
   -0.3597   -2.1385    0.0000 H   0  0  0  0  0  0  0  0  0  0  0  0
    0.1216   -4.8678    0.0000 H   0  0  0  0  0  0  0  0  0  0  0  0
    3.1757   -0.2778    0.0000 C   0  0  0  0  0  0  0  0  0  0  0  0
    4.7757   -0.2778    0.0000 H   0  0  0  0  0  0  0  0  0  0  0  0
    3.9757    1.1078    0.0000 H   0  0  0  0  0  0  0  0  0  0  0  0
    1.5758   -0.2778    0.0000 H   0  0  0  0  0  0  0  0  0  0  0  0
    0.0001    0.0000    0.0000 Si  0  0  0  0  0  0  0  0  0  0  0  0
   -1.0284    1.2257    0.0000 C   0  0  0  0  0  0  0  0  0  0  0  0
   -2.0569    2.4513    0.0000 H   0  0  0  0  0  0  0  0  0  0  0  0
   -2.6041    0.9479    0.0000 H   0  0  0  0  0  0  0  0  0  0  0  0
   -0.4812    2.7292    0.0000 H   0  0  0  0  0  0  0  0  0  0  0  0
    1.3856    0.8000    0.0000 C   0  0  0  0  0  0  0  0  0  0  0  0
    2.7712    1.6001    0.0000 H   0  0  0  0  0  0  0  0  0  0  0  0
    1.3856    2.4000    0.0000 H   0  0  0  0  0  0  0  0  0  0  0  0
    0.0001    1.6001    0.0000 H   0  0  0  0  0  0  0  0  0  0  0  0
   -1.3857   -0.7999    0.0000 C   0  0  0  0  0  0  0  0  0  0  0  0
   -2.7713   -1.6000    0.0000 H   0  0  0  0  0  0  0  0  0  0  0  0
   -1.3857   -2.4000    0.0000 H   0  0  0  0  0  0  0  0  0  0  0  0
   -2.7713    0.0000    0.0000 H   0  0  0  0  0  0  0  0  0  0  0  0
  1  2  1  0  0  0  0
  2  3  1  0  0  0  0
  3  4  1  0  0  0  0
  4  5  1  0  0  0  0
  5  6  1  0  0  0  0
  5  7  1  0  0  0  0
  5  8  1  0  0  0  0
  4  9  1  0  0  0  0
  9 10  1  0  0  0  0
  9 11  1  0  0  0  0
  9 12  1  0  0  0  0
  4 13  1  0  0  0  0
 13 14  1  0  0  0  0
 13 15  1  0  0  0  0
 13 16  1  0  0  0  0
  2 17  1  0  0  0  0
 17 18  1  0  0  0  0
 18 19  1  0  0  0  0
 19 20  1  0  0  0  0
 19 21  1  0  0  0  0
 19 22  1  0  0  0  0
 18 23  1  0  0  0  0
 23 24  1  0  0  0  0
 23 25  1  0  0  0  0
 23 26  1  0  0  0  0
 18 27  1  0  0  0  0
 27 28  1  0  0  0  0
 27 29  1  0  0  0  0
 27 30  1  0  0  0  0
  2 31  1  0  0  0  0
 31 32  1  0  0  0  0
 31 33  1  0  0  0  0
 31 34  1  0  0  0  0
  1 35  1  0  0  0  0
 35 36  1  0  0  0  0
 36 37  1  0  0  0  0
 36 38  1  0  0  0  0
 36 39  1  0  0  0  0
 35 40  1  0  0  0  0
 40 41  1  0  0  0  0
 40 42  1  0  0  0  0
 40 43  1  0  0  0  0
 35 44  1  0  0  0  0
 44 45  1  0  0  0  0
 44 46  1  0  0  0  0
 44 47  1  0  0  0  0
M  END
> <ChemID>
102477

> <source_casrn>
17928-28-8

> <CAS>
17928-28-8

> <SMILES>
C[Si](O[Si](C)(C)C)(O[Si](C)(C)C)O[Si](C)(C)C

> <NAME>
METHYLTRIS(TRIMETHYLSILOXY)SILANE

> <preferred_name>
Methyltris(trimethylsiloxy)silane

> <iupac>
1,1,1,3,5,5,5-heptamethyl-3-[(trimethylsilyl)oxy]trisiloxane

> <MPID>
26955

> <dsstox_substance_id>
DTXSID9025669

> <Canonical_QSARr>
C[Si](O[Si](C)(C)C)(O[Si](C)(C)C)O[Si](C)(C)C

> <InChI_Code_QSARr>
InChI=1S/C10H30O3Si4/c1-14(2,3)11-17(10,12-15(4,5)6)13-16(7,8)9/h1-10H3

> <InChI Key_QSARr>
RGMZNZABJYWAEC-UHFFFAOYSA-N

> <Salt_Solvent>
?

> <LogVP>
-1.3956

$$$$
102481
  -INDIGO-08031723152D

 57 56  0  0  0  0  0  0  0  0999 V2000
   -0.0002    0.0000    0.0000 C   0  0  0  0  0  0  0  0  0  0  0  0
    0.6121    1.4782    0.0000 H   0  0  0  0  0  0  0  0  0  0  0  0
   -0.6121    1.4782    0.0000 H   0  0  0  0  0  0  0  0  0  0  0  0
   -1.3855   -0.8000    0.0000 C   0  0  0  0  0  0  0  0  0  0  0  0
   -1.9979   -2.2782    0.0000 H   0  0  0  0  0  0  0  0  0  0  0  0
   -0.7732   -2.2782    0.0000 H   0  0  0  0  0  0  0  0  0  0  0  0
   -2.7713    0.0000    0.0000 C   0  0  0  0  0  0  0  0  0  0  0  0
   -2.1590    1.4782    0.0000 H   0  0  0  0  0  0  0  0  0  0  0  0
   -3.3836    1.4782    0.0000 H   0  0  0  0  0  0  0  0  0  0  0  0
   -4.1570   -0.8000    0.0000 C   0  0  0  0  0  0  0  0  0  0  0  0
   -4.7693   -2.2782    0.0000 H   0  0  0  0  0  0  0  0  0  0  0  0
   -3.5447   -2.2782    0.0000 H   0  0  0  0  0  0  0  0  0  0  0  0
   -5.5428    0.0000    0.0000 C   0  0  0  0  0  0  0  0  0  0  0  0
   -4.9305    1.4782    0.0000 H   0  0  0  0  0  0  0  0  0  0  0  0
   -6.1547    1.4782    0.0000 H   0  0  0  0  0  0  0  0  0  0  0  0
   -6.9281   -0.8000    0.0000 C   0  0  0  0  0  0  0  0  0  0  0  0
   -7.5404   -2.2782    0.0000 H   0  0  0  0  0  0  0  0  0  0  0  0
   -6.3158   -2.2782    0.0000 H   0  0  0  0  0  0  0  0  0  0  0  0
   -8.3138    0.0000    0.0000 C   0  0  0  0  0  0  0  0  0  0  0  0
   -7.7015    1.4782    0.0000 H   0  0  0  0  0  0  0  0  0  0  0  0
   -8.9262    1.4782    0.0000 H   0  0  0  0  0  0  0  0  0  0  0  0
   -9.6996   -0.8000    0.0000 C   0  0  0  0  0  0  0  0  0  0  0  0
  -10.3119   -2.2782    0.0000 H   0  0  0  0  0  0  0  0  0  0  0  0
   -9.0873   -2.2782    0.0000 H   0  0  0  0  0  0  0  0  0  0  0  0
  -11.0853    0.0000    0.0000 C   0  0  0  0  0  0  0  0  0  0  0  0
  -10.4730    1.4782    0.0000 H   0  0  0  0  0  0  0  0  0  0  0  0
  -11.6972    1.4782    0.0000 H   0  0  0  0  0  0  0  0  0  0  0  0
  -12.4707   -0.8000    0.0000 C   0  0  0  0  0  0  0  0  0  0  0  0
  -13.8564   -1.6000    0.0000 H   0  0  0  0  0  0  0  0  0  0  0  0
  -13.8564    0.0000    0.0000 H   0  0  0  0  0  0  0  0  0  0  0  0
  -12.4707   -2.4000    0.0000 H   0  0  0  0  0  0  0  0  0  0  0  0
    1.3855   -0.8000    0.0000 C   0  0  0  0  0  0  0  0  0  0  0  0
    0.7732   -2.2782    0.0000 H   0  0  0  0  0  0  0  0  0  0  0  0
    1.9979   -2.2782    0.0000 H   0  0  0  0  0  0  0  0  0  0  0  0
    2.7713    0.0000    0.0000 C   0  0  0  0  0  0  0  0  0  0  0  0
    3.3836    1.4782    0.0000 H   0  0  0  0  0  0  0  0  0  0  0  0
    2.1590    1.4782    0.0000 H   0  0  0  0  0  0  0  0  0  0  0  0
    4.1570   -0.8000    0.0000 C   0  0  0  0  0  0  0  0  0  0  0  0
    3.5447   -2.2782    0.0000 H   0  0  0  0  0  0  0  0  0  0  0  0
    4.7693   -2.2782    0.0000 H   0  0  0  0  0  0  0  0  0  0  0  0
    5.5428    0.0000    0.0000 C   0  0  0  0  0  0  0  0  0  0  0  0
    6.1547    1.4782    0.0000 H   0  0  0  0  0  0  0  0  0  0  0  0
    4.9305    1.4782    0.0000 H   0  0  0  0  0  0  0  0  0  0  0  0
    6.9281   -0.8000    0.0000 C   0  0  0  0  0  0  0  0  0  0  0  0
    6.3158   -2.2782    0.0000 H   0  0  0  0  0  0  0  0  0  0  0  0
    7.5404   -2.2782    0.0000 H   0  0  0  0  0  0  0  0  0  0  0  0
    8.3138    0.0000    0.0000 C   0  0  0  0  0  0  0  0  0  0  0  0
    8.9262    1.4782    0.0000 H   0  0  0  0  0  0  0  0  0  0  0  0
    7.7015    1.4782    0.0000 H   0  0  0  0  0  0  0  0  0  0  0  0
    9.6996   -0.8000    0.0000 C   0  0  0  0  0  0  0  0  0  0  0  0
    9.0873   -2.2782    0.0000 H   0  0  0  0  0  0  0  0  0  0  0  0
   10.3119   -2.2782    0.0000 H   0  0  0  0  0  0  0  0  0  0  0  0
   11.0853    0.0000    0.0000 C   0  0  0  0  0  0  0  0  0  0  0  0
   11.0853    1.6000    0.0000 H   0  0  0  0  0  0  0  0  0  0  0  0
   12.4707   -0.8000    0.0000 C   0  0  0  0  0  0  0  0  0  0  0  0
   13.8564    0.0000    0.0000 H   0  0  0  0  0  0  0  0  0  0  0  0
   12.4707   -2.4000    0.0000 H   0  0  0  0  0  0  0  0  0  0  0  0
  1  2  1  0  0  0  0
  1  3  1  0  0  0  0
  1  4  1  0  0  0  0
  4  5  1  0  0  0  0
  4  6  1  0  0  0  0
  4  7  1  0  0  0  0
  7  8  1  0  0  0  0
  7  9  1  0  0  0  0
  7 10  1  0  0  0  0
 10 11  1  0  0  0  0
 10 12  1  0  0  0  0
 10 13  1  0  0  0  0
 13 14  1  0  0  0  0
 13 15  1  0  0  0  0
 13 16  1  0  0  0  0
 16 17  1  0  0  0  0
 16 18  1  0  0  0  0
 16 19  1  0  0  0  0
 19 20  1  0  0  0  0
 19 21  1  0  0  0  0
 19 22  1  0  0  0  0
 22 23  1  0  0  0  0
 22 24  1  0  0  0  0
 22 25  1  0  0  0  0
 25 26  1  0  0  0  0
 25 27  1  0  0  0  0
 25 28  1  0  0  0  0
 28 29  1  0  0  0  0
 28 30  1  0  0  0  0
 28 31  1  0  0  0  0
  1 32  1  0  0  0  0
 32 33  1  0  0  0  0
 32 34  1  0  0  0  0
 32 35  1  0  0  0  0
 35 36  1  0  0  0  0
 35 37  1  0  0  0  0
 35 38  1  0  0  0  0
 38 39  1  0  0  0  0
 38 40  1  0  0  0  0
 38 41  1  0  0  0  0
 41 42  1  0  0  0  0
 41 43  1  0  0  0  0
 41 44  1  0  0  0  0
 44 45  1  0  0  0  0
 44 46  1  0  0  0  0
 44 47  1  0  0  0  0
 47 48  1  0  0  0  0
 47 49  1  0  0  0  0
 47 50  1  0  0  0  0
 50 51  1  0  0  0  0
 50 52  1  0  0  0  0
 50 53  1  0  0  0  0
 53 54  1  0  0  0  0
 53 55  2  0  0  0  0
 55 56  1  0  0  0  0
 55 57  1  0  0  0  0
M  END
> <ChemID>
102481

> <source_casrn>
18435-45-5

> <CAS>
18435-45-5

> <SMILES>
CCCCCCCCCCCCCCCCCC=C

> <NAME>
1-NONADECENE

> <preferred_name>
1-Nonadecene

> <iupac>
Nonadec-1-ene

> <MPID>
26959

> <dsstox_substance_id>
DTXSID0066377

> <Canonical_QSARr>
CCCCCCCCCCCCCCCCCC=C

> <InChI_Code_QSARr>
InChI=1S/C19H38/c1-3-5-7-9-11-13-15-17-19-18-16-14-12-10-8-6-4-2/h3H,1,4-19H2,2H3

> <InChI Key_QSARr>
NHLUYCJZUXOUBX-UHFFFAOYSA-N

> <Salt_Solvent>
?

> <LogVP>
-4.419

$$$$
102485
  -INDIGO-08031723152D

 17 16  0  0  0  0  0  0  0  0999 V2000
    2.7713   -0.0000    0.0000 C   0  0  0  0  0  0  0  0  0  0  0  0
    4.1569   -0.8000    0.0000 H   0  0  0  0  0  0  0  0  0  0  0  0
    4.1569    0.8000    0.0000 H   0  0  0  0  0  0  0  0  0  0  0  0
    1.3856    0.8000    0.0000 C   0  0  0  0  0  0  0  0  0  0  0  0
    0.7734    2.2782    0.0000 H   0  0  0  0  0  0  0  0  0  0  0  0
    0.0001   -0.0000    0.0000 C   0  0  0  0  0  0  0  0  0  0  0  0
    0.6123   -1.4782    0.0000 H   0  0  0  0  0  0  0  0  0  0  0  0
   -0.6123   -1.4782    0.0000 H   0  0  0  0  0  0  0  0  0  0  0  0
   -1.3856    0.8000    0.0000 C   0  0  0  0  0  0  0  0  0  0  0  0
   -1.9979    2.2782    0.0000 H   0  0  0  0  0  0  0  0  0  0  0  0
   -0.7734    2.2782    0.0000 H   0  0  0  0  0  0  0  0  0  0  0  0
   -2.7713   -0.0000    0.0000 C   0  0  0  0  0  0  0  0  0  0  0  0
   -4.1569   -0.8000    0.0000 H   0  0  0  0  0  0  0  0  0  0  0  0
   -4.1569    0.8000    0.0000 H   0  0  0  0  0  0  0  0  0  0  0  0
   -2.7713   -1.6000    0.0000 H   0  0  0  0  0  0  0  0  0  0  0  0
    1.9979    2.2782    0.0000 Br  0  0  0  0  0  0  0  0  0  0  0  0
    2.7713   -1.6000    0.0000 Br  0  0  0  0  0  0  0  0  0  0  0  0
  1  2  1  0  0  0  0
  1  3  1  0  0  0  0
  1  4  1  0  0  0  0
  4  5  1  0  0  0  0
  4  6  1  0  0  0  0
  6  7  1  0  0  0  0
  6  8  1  0  0  0  0
  6  9  1  0  0  0  0
  9 10  1  0  0  0  0
  9 11  1  0  0  0  0
  9 12  1  0  0  0  0
 12 13  1  0  0  0  0
 12 14  1  0  0  0  0
 12 15  1  0  0  0  0
  4 16  1  0  0  0  0
  1 17  1  0  0  0  0
M  END
> <ChemID>
102485

> <source_casrn>
19398-53-9

> <CAS>
NOCAS_871292

> <SMILES>
CCCC(Br)CBr

> <NAME>
1,2-DIBROMOPENTANE

> <preferred_name>


> <iupac>


> <MPID>
26963

> <dsstox_substance_id>
DTXSID00871292

> <Canonical_QSARr>
CCCC(Br)CBr

> <InChI_Code_QSARr>
InChI=1S/C5H10Br2/c1-2-3-5(7)4-6/h5H,2-4H2,1H3

> <InChI Key_QSARr>
CITMYAPULDSOHG-UHFFFAOYSA-N

> <Salt_Solvent>
?

> <LogVP>
0.1535

$$$$
102490
  -INDIGO-08031723152D

 28 28  0  0  0  0  0  0  0  0999 V2000
    1.6000    0.0000    0.0000 C   0  0  0  0  0  0  0  0  0  0  0  0
    2.4000   -1.3856    0.0000 O   0  0  0  0  0  0  0  0  0  0  0  0
    0.0000    0.0000    0.0000 N   0  0  0  0  0  0  0  0  0  0  0  0
   -0.8000   -1.3856    0.0000 C   0  0  0  0  0  0  0  0  0  0  0  0
   -1.6000   -2.7713    0.0000 H   0  0  0  0  0  0  0  0  0  0  0  0
   -2.4000   -1.3856    0.0000 H   0  0  0  0  0  0  0  0  0  0  0  0
    0.0000   -2.7713    0.0000 H   0  0  0  0  0  0  0  0  0  0  0  0
   -0.8000    1.3856    0.0000 C   0  0  0  0  0  0  0  0  0  0  0  0
   -1.6000    2.7713    0.0000 H   0  0  0  0  0  0  0  0  0  0  0  0
   -2.4000    1.3856    0.0000 H   0  0  0  0  0  0  0  0  0  0  0  0
    0.0000    2.7713    0.0000 H   0  0  0  0  0  0  0  0  0  0  0  0
    2.4000    1.3856    0.0000 N   0  0  0  0  0  0  0  0  0  0  0  0
    1.6000    2.7713    0.0000 H   0  0  0  0  0  0  0  0  0  0  0  0
    4.0000    1.3856    0.0000 C   0  0  0  0  0  0  0  0  0  0  0  0
    4.8000    2.7713    0.0000 C   0  0  0  0  0  0  0  0  0  0  0  0
    4.0000    4.1569    0.0000 H   0  0  0  0  0  0  0  0  0  0  0  0
    6.4000    2.7713    0.0000 C   0  0  0  0  0  0  0  0  0  0  0  0
    7.2000    4.1569    0.0000 Cl  0  0  0  0  0  0  0  0  0  0  0  0
    7.2000    1.3856    0.0000 C   0  0  0  0  0  0  0  0  0  0  0  0
    8.8000    1.3856    0.0000 O   0  0  0  0  0  0  0  0  0  0  0  0
    9.6000    2.7713    0.0000 C   0  0  0  0  0  0  0  0  0  0  0  0
   11.2000    2.7713    0.0000 H   0  0  0  0  0  0  0  0  0  0  0  0
   10.4000    4.1569    0.0000 H   0  0  0  0  0  0  0  0  0  0  0  0
   10.4000    1.3856    0.0000 H   0  0  0  0  0  0  0  0  0  0  0  0
    6.4000    0.0000    0.0000 C   0  0  0  0  0  0  0  0  0  0  0  0
    7.2000   -1.3856    0.0000 H   0  0  0  0  0  0  0  0  0  0  0  0
    4.8000    0.0000    0.0000 C   0  0  0  0  0  0  0  0  0  0  0  0
    4.0000   -1.3856    0.0000 H   0  0  0  0  0  0  0  0  0  0  0  0
  1  2  2  0  0  0  0
  1  3  1  0  0  0  0
  3  4  1  0  0  0  0
  4  5  1  0  0  0  0
  4  6  1  0  0  0  0
  4  7  1  0  0  0  0
  3  8  1  0  0  0  0
  8  9  1  0  0  0  0
  8 10  1  0  0  0  0
  8 11  1  0  0  0  0
  1 12  1  0  0  0  0
 12 13  1  0  0  0  0
 12 14  1  0  0  0  0
 14 15  1  0  0  0  0
 15 16  1  0  0  0  0
 15 17  2  0  0  0  0
 17 18  1  0  0  0  0
 17 19  1  0  0  0  0
 19 20  1  0  0  0  0
 20 21  1  0  0  0  0
 21 22  1  0  0  0  0
 21 23  1  0  0  0  0
 21 24  1  0  0  0  0
 19 25  2  0  0  0  0
 25 26  1  0  0  0  0
 25 27  1  0  0  0  0
 27 14  2  0  0  0  0
 27 28  1  0  0  0  0
M  END
> <ChemID>
102490

> <source_casrn>
19937-59-8

> <CAS>
19937-59-8

> <SMILES>
COc1ccc(cc1Cl)NC(=O)N(C)C

> <NAME>
METOXURON

> <preferred_name>
Metoxuron

> <iupac>
3-(3-chloro-4-methoxyphenyl)-1,1-dimethylurea

> <MPID>
26967

> <dsstox_substance_id>
DTXSID1042158

> <Canonical_QSARr>
COc1ccc(cc1Cl)NC(=O)N(C)C

> <InChI_Code_QSARr>
InChI=1S/C10H13ClN2O2/c1-13(2)10(14)12-7-4-5-9(15-3)8(11)6-7/h4-6H,1-3H3,(H,12,14)

> <InChI Key_QSARr>
DSRNRYQBBJQVCW-UHFFFAOYSA-N

> <Salt_Solvent>
?

> <LogVP>
-4.4908

$$$$
102494
  -INDIGO-08031723152D

 23 22  0  0  0  0  0  0  0  0999 V2000
   -2.7713    0.0000    0.0000 C   0  0  0  0  0  0  0  0  0  0  0  0
   -2.1589   -1.4782    0.0000 H   0  0  0  0  0  0  0  0  0  0  0  0
   -3.3836   -1.4782    0.0000 H   0  0  0  0  0  0  0  0  0  0  0  0
   -1.3856    0.8000    0.0000 C   0  0  0  0  0  0  0  0  0  0  0  0
   -1.9979    2.2782    0.0000 H   0  0  0  0  0  0  0  0  0  0  0  0
   -0.7734    2.2782    0.0000 H   0  0  0  0  0  0  0  0  0  0  0  0
   -0.0001    0.0000    0.0000 C   0  0  0  0  0  0  0  0  0  0  0  0
    0.6123   -1.4782    0.0000 H   0  0  0  0  0  0  0  0  0  0  0  0
   -0.6122   -1.4782    0.0000 H   0  0  0  0  0  0  0  0  0  0  0  0
    1.3856    0.8000    0.0000 C   0  0  0  0  0  0  0  0  0  0  0  0
    0.7733    2.2782    0.0000 H   0  0  0  0  0  0  0  0  0  0  0  0
    1.9980    2.2782    0.0000 H   0  0  0  0  0  0  0  0  0  0  0  0
    2.7713    0.0000    0.0000 C   0  0  0  0  0  0  0  0  0  0  0  0
    3.3835   -1.4782    0.0000 H   0  0  0  0  0  0  0  0  0  0  0  0
    2.1590   -1.4782    0.0000 H   0  0  0  0  0  0  0  0  0  0  0  0
    4.1569    0.8000    0.0000 C   0  0  0  0  0  0  0  0  0  0  0  0
    5.5426    1.6000    0.0000 H   0  0  0  0  0  0  0  0  0  0  0  0
    5.5426    0.0000    0.0000 H   0  0  0  0  0  0  0  0  0  0  0  0
    4.1569    2.4000    0.0000 H   0  0  0  0  0  0  0  0  0  0  0  0
   -4.1570    0.8000    0.0000 O   0  0  0  0  0  0  0  0  0  0  0  0
   -5.5425    0.0000    0.0000 N   0  0  0  0  0  0  0  0  0  0  0  0
   -6.9282    0.8000    0.0000 O   0  0  0  0  0  0  0  0  0  0  0  0
   -5.5425   -1.6000    0.0000 O   0  0  0  0  0  0  0  0  0  0  0  0
  1  2  1  0  0  0  0
  1  3  1  0  0  0  0
  1  4  1  0  0  0  0
  4  5  1  0  0  0  0
  4  6  1  0  0  0  0
  4  7  1  0  0  0  0
  7  8  1  0  0  0  0
  7  9  1  0  0  0  0
  7 10  1  0  0  0  0
 10 11  1  0  0  0  0
 10 12  1  0  0  0  0
 10 13  1  0  0  0  0
 13 14  1  0  0  0  0
 13 15  1  0  0  0  0
 13 16  1  0  0  0  0
 16 17  1  0  0  0  0
 16 18  1  0  0  0  0
 16 19  1  0  0  0  0
  1 20  1  0  0  0  0
 20 21  1  0  0  0  0
 21 22  2  0  0  0  0
 21 23  1  0  0  0  0
M  CHG  2  21   1  23  -1
M  END
> <ChemID>
102494

> <source_casrn>
20633-11-8

> <CAS>
20633-11-8

> <SMILES>
CCCCCCO[N+]([O-])=O

> <NAME>
1-HEXYL NITRATE

> <preferred_name>
Nitric acid, hexyl ester

> <iupac>
HEXYL NITRATE

> <MPID>
26971

> <dsstox_substance_id>
DTXSID8066636

> <Canonical_QSARr>
CCCCCCO[N+]([O-])=O

> <InChI_Code_QSARr>
InChI=1S/C6H13NO3/c1-2-3-4-5-6-10-7(8)9/h2-6H2,1H3

> <InChI Key_QSARr>
AGDYNDJUZRMYRG-UHFFFAOYSA-N

> <Salt_Solvent>
?

> <LogVP>
0.1987

$$$$
102498
  -INDIGO-08031723152D

 29 29  0  0  0  0  0  0  0  0999 V2000
    2.7713    0.0001    0.0000 C   0  0  0  0  0  0  0  0  0  0  0  0
    4.1570    0.8000    0.0000 N   0  0  0  0  0  0  0  0  0  0  0  0
    5.5426    0.0001    0.0000 C   0  0  0  0  0  0  0  0  0  0  0  0
    6.9283    0.8000    0.0000 N   0  0  0  0  0  0  0  0  0  0  0  0
    6.9283    2.4000    0.0000 H   0  0  0  0  0  0  0  0  0  0  0  0
    8.3138    0.0001    0.0000 C   0  0  0  0  0  0  0  0  0  0  0  0
    7.7015   -1.4782    0.0000 H   0  0  0  0  0  0  0  0  0  0  0  0
    8.9262   -1.4782    0.0000 H   0  0  0  0  0  0  0  0  0  0  0  0
    9.6996    0.8000    0.0000 C   0  0  0  0  0  0  0  0  0  0  0  0
   11.0851    1.6000    0.0000 H   0  0  0  0  0  0  0  0  0  0  0  0
   11.0851    0.0001    0.0000 H   0  0  0  0  0  0  0  0  0  0  0  0
    9.6996    2.4000    0.0000 H   0  0  0  0  0  0  0  0  0  0  0  0
    5.5426   -1.6000    0.0000 N   0  0  0  0  0  0  0  0  0  0  0  0
    4.1570   -2.4000    0.0000 C   0  0  0  0  0  0  0  0  0  0  0  0
    4.1570   -4.0000    0.0000 Cl  0  0  0  0  0  0  0  0  0  0  0  0
    2.7713   -1.6000    0.0000 N   0  0  0  0  0  0  0  0  0  0  0  0
    1.3857    0.8000    0.0000 N   0  0  0  0  0  0  0  0  0  0  0  0
    1.3855    2.4000    0.0000 H   0  0  0  0  0  0  0  0  0  0  0  0
    0.0000    0.0001    0.0000 C   0  0  0  0  0  0  0  0  0  0  0  0
    0.8001   -1.3856    0.0000 C   0  0  0  0  0  0  0  0  0  0  0  0
    1.5999   -2.7713    0.0000 N   0  0  0  0  0  0  0  0  0  0  0  0
   -1.3855   -0.8000    0.0000 C   0  0  0  0  0  0  0  0  0  0  0  0
   -2.7713   -1.6000    0.0000 H   0  0  0  0  0  0  0  0  0  0  0  0
   -2.7713    0.0001    0.0000 H   0  0  0  0  0  0  0  0  0  0  0  0
   -1.3857   -2.4000    0.0000 H   0  0  0  0  0  0  0  0  0  0  0  0
   -0.8001    1.3856    0.0000 C   0  0  0  0  0  0  0  0  0  0  0  0
   -1.5999    2.7713    0.0000 H   0  0  0  0  0  0  0  0  0  0  0  0
   -2.4000    1.3856    0.0000 H   0  0  0  0  0  0  0  0  0  0  0  0
    0.0000    2.7713    0.0000 H   0  0  0  0  0  0  0  0  0  0  0  0
  1  2  1  0  0  0  0
  2  3  2  0  0  0  0
  3  4  1  0  0  0  0
  4  5  1  0  0  0  0
  4  6  1  0  0  0  0
  6  7  1  0  0  0  0
  6  8  1  0  0  0  0
  6  9  1  0  0  0  0
  9 10  1  0  0  0  0
  9 11  1  0  0  0  0
  9 12  1  0  0  0  0
  3 13  1  0  0  0  0
 13 14  2  0  0  0  0
 14 15  1  0  0  0  0
 14 16  1  0  0  0  0
 16  1  2  0  0  0  0
  1 17  1  0  0  0  0
 17 18  1  0  0  0  0
 17 19  1  0  0  0  0
 19 20  1  0  0  0  0
 20 21  3  0  0  0  0
 19 22  1  0  0  0  0
 22 23  1  0  0  0  0
 22 24  1  0  0  0  0
 22 25  1  0  0  0  0
 19 26  1  0  0  0  0
 26 27  1  0  0  0  0
 26 28  1  0  0  0  0
 26 29  1  0  0  0  0
M  END
> <ChemID>
102498

> <source_casrn>
21725-46-2

> <CAS>
21725-46-2

> <SMILES>
CCNc1[n]c(Cl)[n]c(NC(C)(C)C#N)[n]1

> <NAME>
CYANAZINE

> <preferred_name>
Cyanazine

> <iupac>
2-{[4-chloro-6-(ethylamino)-1,3,5-triazin-2-yl]amino}-2-methylpropanenitrile

> <MPID>
26975

> <dsstox_substance_id>
DTXSID1023990

> <Canonical_QSARr>
CCNc1[n]c(Cl)[n]c(NC(C)(C)C#N)[n]1

> <InChI_Code_QSARr>
InChI=1S/C9H13ClN6/c1-4-12-7-13-6(10)14-8(15-7)16-9(2,3)5-11/h4H2,1-3H3,(H2,12,13,14,15,16)

> <InChI Key_QSARr>
MZZBPDKVEFVLFF-UHFFFAOYSA-N

> <Salt_Solvent>
?

> <LogVP>
-6.8601

$$$$
102503
  -INDIGO-08031723152D

 29 30  0  0  0  0  0  0  0  0999 V2000
    1.4616    0.6508    0.0000 O   0  0  0  0  0  0  0  0  0  0  0  0
   -0.0000   -0.0000    0.0000 C   0  0  0  0  0  0  0  0  0  0  0  0
   -0.4943    1.5217    0.0000 C   0  0  0  0  0  0  0  0  0  0  0  0
   -0.9888    3.0434    0.0000 H   0  0  0  0  0  0  0  0  0  0  0  0
   -2.0596    1.8544    0.0000 H   0  0  0  0  0  0  0  0  0  0  0  0
    0.5762    2.7107    0.0000 H   0  0  0  0  0  0  0  0  0  0  0  0
   -1.5651   -0.3327    0.0000 C   0  0  0  0  0  0  0  0  0  0  0  0
   -3.1301   -0.6653    0.0000 H   0  0  0  0  0  0  0  0  0  0  0  0
   -2.0596   -1.8544    0.0000 H   0  0  0  0  0  0  0  0  0  0  0  0
   -2.6356    0.8564    0.0000 H   0  0  0  0  0  0  0  0  0  0  0  0
    0.1672   -1.5913    0.0000 O   0  0  0  0  0  0  0  0  0  0  0  0
    1.7324   -1.9239    0.0000 C   0  0  0  0  0  0  0  0  0  0  0  0
    2.5323   -0.5382    0.0000 C   0  0  0  0  0  0  0  0  0  0  0  0
    4.1323   -0.5382    0.0000 C   0  0  0  0  0  0  0  0  0  0  0  0
    4.9322   -1.9239    0.0000 C   0  0  0  0  0  0  0  0  0  0  0  0
    6.5323   -1.9239    0.0000 H   0  0  0  0  0  0  0  0  0  0  0  0
    4.1323   -3.3096    0.0000 C   0  0  0  0  0  0  0  0  0  0  0  0
    4.9322   -4.6952    0.0000 H   0  0  0  0  0  0  0  0  0  0  0  0
    2.5323   -3.3096    0.0000 C   0  0  0  0  0  0  0  0  0  0  0  0
    1.7324   -4.6952    0.0000 H   0  0  0  0  0  0  0  0  0  0  0  0
    4.9322    0.8474    0.0000 O   0  0  0  0  0  0  0  0  0  0  0  0
    6.5323    0.8474    0.0000 C   0  0  0  0  0  0  0  0  0  0  0  0
    7.3322   -0.5382    0.0000 O   0  0  0  0  0  0  0  0  0  0  0  0
    7.3322    2.2331    0.0000 N   0  0  0  0  0  0  0  0  0  0  0  0
    6.5323    3.6187    0.0000 H   0  0  0  0  0  0  0  0  0  0  0  0
    8.9322    2.2331    0.0000 C   0  0  0  0  0  0  0  0  0  0  0  0
   10.5323    2.2331    0.0000 H   0  0  0  0  0  0  0  0  0  0  0  0
    9.7324    3.6187    0.0000 H   0  0  0  0  0  0  0  0  0  0  0  0
    9.7324    0.8474    0.0000 H   0  0  0  0  0  0  0  0  0  0  0  0
  1  2  1  0  0  0  0
  2  3  1  0  0  0  0
  3  4  1  0  0  0  0
  3  5  1  0  0  0  0
  3  6  1  0  0  0  0
  2  7  1  0  0  0  0
  7  8  1  0  0  0  0
  7  9  1  0  0  0  0
  7 10  1  0  0  0  0
  2 11  1  0  0  0  0
 11 12  1  0  0  0  0
 12 13  1  0  0  0  0
 13  1  1  0  0  0  0
 13 14  2  0  0  0  0
 14 15  1  0  0  0  0
 15 16  1  0  0  0  0
 15 17  2  0  0  0  0
 17 18  1  0  0  0  0
 17 19  1  0  0  0  0
 19 12  2  0  0  0  0
 19 20  1  0  0  0  0
 14 21  1  0  0  0  0
 21 22  1  0  0  0  0
 22 23  2  0  0  0  0
 22 24  1  0  0  0  0
 24 25  1  0  0  0  0
 24 26  1  0  0  0  0
 26 27  1  0  0  0  0
 26 28  1  0  0  0  0
 26 29  1  0  0  0  0
M  END
> <ChemID>
102503

> <source_casrn>
22781-23-3

> <CAS>
22781-23-3

> <SMILES>
CNC(=O)Oc1cccc2OC(C)(C)Oc21

> <NAME>
BENDIOCARB

> <preferred_name>
Bendiocarb

> <iupac>
2,2-dimethyl-1,3-benzodioxol-4-yl methylcarbamate

> <MPID>
26980

> <dsstox_substance_id>
DTXSID9032327

> <Canonical_QSARr>
CNC(=O)Oc1cccc2OC(C)(C)Oc21

> <InChI_Code_QSARr>
InChI=1S/C11H13NO4/c1-11(2)15-8-6-4-5-7(9(8)16-11)14-10(13)12-3/h4-6H,1-3H3,(H,12,13)

> <InChI Key_QSARr>
XEGGRYVFLWGFHI-UHFFFAOYSA-N

> <Salt_Solvent>
?

> <LogVP>
-4.4622

$$$$
102508
  -INDIGO-08031723152D

 27 26  0  0  0  0  0  0  0  0999 V2000
    0.0000   -2.7712    0.0000 O   0  0  0  0  0  0  0  0  0  0  0  0
    0.8001   -1.3856    0.0000 C   0  0  0  0  0  0  0  0  0  0  0  0
    2.4001   -1.3856    0.0000 C   0  0  0  0  0  0  0  0  0  0  0  0
    3.2001    0.0001    0.0000 N   0  0  0  0  0  0  0  0  0  0  0  0
    4.7999    0.0001    0.0000 O   0  0  0  0  0  0  0  0  0  0  0  0
    5.5999    1.3856    0.0000 C   0  0  0  0  0  0  0  0  0  0  0  0
    4.7999    2.7713    0.0000 O   0  0  0  0  0  0  0  0  0  0  0  0
    7.2000    1.3856    0.0000 N   0  0  0  0  0  0  0  0  0  0  0  0
    8.0000    0.0001    0.0000 H   0  0  0  0  0  0  0  0  0  0  0  0
    8.0000    2.7713    0.0000 C   0  0  0  0  0  0  0  0  0  0  0  0
    8.8000    4.1569    0.0000 H   0  0  0  0  0  0  0  0  0  0  0  0
    9.6000    2.7713    0.0000 H   0  0  0  0  0  0  0  0  0  0  0  0
    7.2000    4.1569    0.0000 H   0  0  0  0  0  0  0  0  0  0  0  0
    3.1999   -2.7712    0.0000 S   0  0  0  0  0  0  0  0  0  0  0  0
    4.7999   -2.7712    0.0000 C   0  0  0  0  0  0  0  0  0  0  0  0
    5.5999   -4.1569    0.0000 H   0  0  0  0  0  0  0  0  0  0  0  0
    6.4000   -2.7712    0.0000 H   0  0  0  0  0  0  0  0  0  0  0  0
    3.9999   -4.1569    0.0000 H   0  0  0  0  0  0  0  0  0  0  0  0
    0.0000    0.0001    0.0000 N   0  0  0  0  0  0  0  0  0  0  0  0
    0.8001    1.3856    0.0000 C   0  0  0  0  0  0  0  0  0  0  0  0
    1.6001    2.7713    0.0000 H   0  0  0  0  0  0  0  0  0  0  0  0
    0.0000    2.7713    0.0000 H   0  0  0  0  0  0  0  0  0  0  0  0
    2.4001    1.3856    0.0000 H   0  0  0  0  0  0  0  0  0  0  0  0
   -1.6000    0.0001    0.0000 C   0  0  0  0  0  0  0  0  0  0  0  0
   -3.2000    0.0001    0.0000 H   0  0  0  0  0  0  0  0  0  0  0  0
   -2.4000   -1.3856    0.0000 H   0  0  0  0  0  0  0  0  0  0  0  0
   -2.4000    1.3856    0.0000 H   0  0  0  0  0  0  0  0  0  0  0  0
  1  2  2  0  0  0  0
  2  3  1  0  0  0  0
  3  4  2  0  0  0  0
  4  5  1  0  0  0  0
  5  6  1  0  0  0  0
  6  7  2  0  0  0  0
  6  8  1  0  0  0  0
  8  9  1  0  0  0  0
  8 10  1  0  0  0  0
 10 11  1  0  0  0  0
 10 12  1  0  0  0  0
 10 13  1  0  0  0  0
  3 14  1  0  0  0  0
 14 15  1  0  0  0  0
 15 16  1  0  0  0  0
 15 17  1  0  0  0  0
 15 18  1  0  0  0  0
  2 19  1  0  0  0  0
 19 20  1  0  0  0  0
 20 21  1  0  0  0  0
 20 22  1  0  0  0  0
 20 23  1  0  0  0  0
 19 24  1  0  0  0  0
 24 25  1  0  0  0  0
 24 26  1  0  0  0  0
 24 27  1  0  0  0  0
M  END
> <ChemID>
102508

> <source_casrn>
23135-22-0

> <CAS>
NOCAS_860293

> <SMILES>
CNC(=O)ON=C(SC)C(=O)N(C)C

> <NAME>
OXAMYL

> <preferred_name>
Oxamyl

> <iupac>
methyl 2-(dimethylamino)-N-[(methylcarbamoyl)oxy]-2-oxoethanimidothioate

> <MPID>
26985

> <dsstox_substance_id>
DTXSID10860293

> <Canonical_QSARr>
CNC(=O)ON=C(SC)C(=O)N(C)C

> <InChI_Code_QSARr>
InChI=1S/C7H13N3O3S/c1-8-7(12)13-9-5(14-4)6(11)10(2)3/h1-4H3,(H,8,12)/b9-5-

> <InChI Key_QSARr>
KZAUOCCYDRDERY-UITAMQMPSA-N

> <Salt_Solvent>
?

> <LogVP>
-3.6383

$$$$
102510
  -INDIGO-08031723152D

 31 31  0  0  0  0  0  0  0  0999 V2000
   -1.3857   -0.8001    0.0000 C   0  0  0  0  0  0  0  0  0  0  0  0
   -1.3857   -2.4001    0.0000 H   0  0  0  0  0  0  0  0  0  0  0  0
    0.0001    0.0000    0.0000 N   0  0  0  0  0  0  0  0  0  0  0  0
    1.3857   -0.8001    0.0000 C   0  0  0  0  0  0  0  0  0  0  0  0
    2.7713   -1.6000    0.0000 H   0  0  0  0  0  0  0  0  0  0  0  0
    2.7713    0.0000    0.0000 H   0  0  0  0  0  0  0  0  0  0  0  0
    1.3857   -2.4001    0.0000 H   0  0  0  0  0  0  0  0  0  0  0  0
    0.0001    1.6000    0.0000 C   0  0  0  0  0  0  0  0  0  0  0  0
    0.0001    3.2000    0.0000 H   0  0  0  0  0  0  0  0  0  0  0  0
    1.3857    2.4001    0.0000 H   0  0  0  0  0  0  0  0  0  0  0  0
   -1.3857    2.4001    0.0000 H   0  0  0  0  0  0  0  0  0  0  0  0
   -2.7713    0.0000    0.0000 N   0  0  0  0  0  0  0  0  0  0  0  0
   -4.1569   -0.7999    0.0000 C   0  0  0  0  0  0  0  0  0  0  0  0
   -5.5424    0.0000    0.0000 C   0  0  0  0  0  0  0  0  0  0  0  0
   -5.5427    1.6000    0.0000 H   0  0  0  0  0  0  0  0  0  0  0  0
   -6.9283   -0.7999    0.0000 C   0  0  0  0  0  0  0  0  0  0  0  0
   -8.3138    0.0000    0.0000 O   0  0  0  0  0  0  0  0  0  0  0  0
   -9.6994   -0.7999    0.0000 C   0  0  0  0  0  0  0  0  0  0  0  0
   -9.6994   -2.3999    0.0000 O   0  0  0  0  0  0  0  0  0  0  0  0
  -11.0853    0.0000    0.0000 N   0  0  0  0  0  0  0  0  0  0  0  0
  -11.0853    1.6000    0.0000 H   0  0  0  0  0  0  0  0  0  0  0  0
  -12.4708   -0.7999    0.0000 C   0  0  0  0  0  0  0  0  0  0  0  0
  -13.8564   -1.6000    0.0000 H   0  0  0  0  0  0  0  0  0  0  0  0
  -13.8564    0.0000    0.0000 H   0  0  0  0  0  0  0  0  0  0  0  0
  -12.4708   -2.3999    0.0000 H   0  0  0  0  0  0  0  0  0  0  0  0
   -6.9283   -2.3999    0.0000 C   0  0  0  0  0  0  0  0  0  0  0  0
   -8.3138   -3.2000    0.0000 H   0  0  0  0  0  0  0  0  0  0  0  0
   -5.5424   -3.2000    0.0000 C   0  0  0  0  0  0  0  0  0  0  0  0
   -5.5427   -4.8000    0.0000 H   0  0  0  0  0  0  0  0  0  0  0  0
   -4.1569   -2.3999    0.0000 C   0  0  0  0  0  0  0  0  0  0  0  0
   -2.7713   -3.2000    0.0000 H   0  0  0  0  0  0  0  0  0  0  0  0
  1  2  1  0  0  0  0
  1  3  1  0  0  0  0
  3  4  1  0  0  0  0
  4  5  1  0  0  0  0
  4  6  1  0  0  0  0
  4  7  1  0  0  0  0
  3  8  1  0  0  0  0
  8  9  1  0  0  0  0
  8 10  1  0  0  0  0
  8 11  1  0  0  0  0
  1 12  2  0  0  0  0
 12 13  1  0  0  0  0
 13 14  1  0  0  0  0
 14 15  1  0  0  0  0
 14 16  2  0  0  0  0
 16 17  1  0  0  0  0
 17 18  1  0  0  0  0
 18 19  2  0  0  0  0
 18 20  1  0  0  0  0
 20 21  1  0  0  0  0
 20 22  1  0  0  0  0
 22 23  1  0  0  0  0
 22 24  1  0  0  0  0
 22 25  1  0  0  0  0
 16 26  1  0  0  0  0
 26 27  1  0  0  0  0
 26 28  2  0  0  0  0
 28 29  1  0  0  0  0
 28 30  1  0  0  0  0
 30 13  2  0  0  0  0
 30 31  1  0  0  0  0
M  END
> <ChemID>
102510

> <source_casrn>
23422-53-9

> <CAS>
23422-53-9

> <SMILES>
Cl.CNC(=O)Oc1cc(ccc1)N=CN(C)C

> <NAME>
FORMETANATE HYDROCHLORIDE

> <preferred_name>
Formetanate hydrochloride

> <iupac>
3-{[(dimethylamino)methylidene]amino}phenyl methylcarbamate hydrochloride (1:1)

> <MPID>
26987

> <dsstox_substance_id>
DTXSID4032405

> <Canonical_QSARr>
CNC(=O)Oc1cc(ccc1)N=CN(C)C

> <InChI_Code_QSARr>
InChI=1S/C11H15N3O2/c1-12-11(15)16-10-6-4-5-9(7-10)13-8-14(2)3/h4-8H,1-3H3,(H,12,15)/b13-8+

> <InChI Key_QSARr>
RMFNNCGOSPBBAD-MDWZMJQESA-N

> <Salt_Solvent>
Cl

> <LogVP>
-7.9208

$$$$
102513
  -INDIGO-08031723152D

 27 28  0  0  0  0  0  0  0  0999 V2000
   -1.5650   -0.3327    0.0000 C   0  0  0  0  0  0  0  0  0  0  0  0
   -1.2324   -1.8977    0.0000 C   0  0  0  0  0  0  0  0  0  0  0  0
   -2.1038   -3.2396    0.0000 Cl  0  0  0  0  0  0  0  0  0  0  0  0
    0.3327   -1.5651    0.0000 C   0  0  0  0  0  0  0  0  0  0  0  0
    0.4164   -3.1629    0.0000 H   0  0  0  0  0  0  0  0  0  0  0  0
    0.0001   -0.0000    0.0000 C   0  0  0  0  0  0  0  0  0  0  0  0
   -0.5733    1.4937    0.0000 H   0  0  0  0  0  0  0  0  0  0  0  0
    1.3856    0.8000    0.0000 C   0  0  0  0  0  0  0  0  0  0  0  0
    2.5747    1.8707    0.0000 H   0  0  0  0  0  0  0  0  0  0  0  0
    0.4451    2.0944    0.0000 H   0  0  0  0  0  0  0  0  0  0  0  0
    2.5747   -0.2706    0.0000 C   0  0  0  0  0  0  0  0  0  0  0  0
    4.1397    0.0621    0.0000 H   0  0  0  0  0  0  0  0  0  0  0  0
    1.9240   -1.7322    0.0000 C   0  0  0  0  0  0  0  0  0  0  0  0
    2.7239   -3.1179    0.0000 H   0  0  0  0  0  0  0  0  0  0  0  0
   -2.9070    0.5388    0.0000 O   0  0  0  0  0  0  0  0  0  0  0  0
   -4.3324   -0.1876    0.0000 P   0  0  0  0  0  0  0  0  0  0  0  0
   -4.4163   -1.7855    0.0000 O   0  0  0  0  0  0  0  0  0  0  0  0
   -5.7581   -0.9140    0.0000 O   0  0  0  0  0  0  0  0  0  0  0  0
   -7.0999   -0.0426    0.0000 C   0  0  0  0  0  0  0  0  0  0  0  0
   -8.5256   -0.7689    0.0000 H   0  0  0  0  0  0  0  0  0  0  0  0
   -8.4419    0.8288    0.0000 H   0  0  0  0  0  0  0  0  0  0  0  0
   -7.1838   -1.6404    0.0000 H   0  0  0  0  0  0  0  0  0  0  0  0
   -5.6744    0.6838    0.0000 O   0  0  0  0  0  0  0  0  0  0  0  0
   -5.5906    2.2816    0.0000 C   0  0  0  0  0  0  0  0  0  0  0  0
   -5.5069    3.8794    0.0000 H   0  0  0  0  0  0  0  0  0  0  0  0
   -6.9326    3.1530    0.0000 H   0  0  0  0  0  0  0  0  0  0  0  0
   -4.1651    3.0080    0.0000 H   0  0  0  0  0  0  0  0  0  0  0  0
  1  2  2  0  0  0  0
  2  3  1  0  0  0  0
  2  4  1  0  0  0  0
  4  5  1  0  0  0  0
  4  6  1  0  0  0  0
  6  1  1  0  0  0  0
  6  7  1  0  0  0  0
  6  8  1  0  0  0  0
  8  9  1  0  0  0  0
  8 10  1  0  0  0  0
  8 11  1  0  0  0  0
 11 12  1  0  0  0  0
 11 13  2  0  0  0  0
 13  4  1  0  0  0  0
 13 14  1  0  0  0  0
  1 15  1  0  0  0  0
 15 16  1  0  0  0  0
 16 17  2  0  0  0  0
 16 18  1  0  0  0  0
 18 19  1  0  0  0  0
 19 20  1  0  0  0  0
 19 21  1  0  0  0  0
 19 22  1  0  0  0  0
 16 23  1  0  0  0  0
 23 24  1  0  0  0  0
 24 25  1  0  0  0  0
 24 26  1  0  0  0  0
 24 27  1  0  0  0  0
M  END
> <ChemID>
102513

> <source_casrn>
23560-59-0

> <CAS>
23560-59-0

> <SMILES>
COP(=O)(OC1C2CC=CC2C=1Cl)OC

> <NAME>
Heptenophos

> <preferred_name>
Heptenophos

> <iupac>
7-chlorobicyclo[3.2.0]hepta-2,6-dien-6-yl dimethyl phosphate

> <MPID>
26990

> <dsstox_substance_id>
DTXSID5042037

> <Canonical_QSARr>
COP(=O)(OC1C2CC=CC2C=1Cl)OC

> <InChI_Code_QSARr>
InChI=1S/C9H12ClO4P/c1-12-15(11,13-2)14-9-7-5-3-4-6(7)8(9)10/h3-4,6-7H,5H2,1-2H3

> <InChI Key_QSARr>
GBAWQJNHVWMTLU-UHFFFAOYSA-N

> <Salt_Solvent>
?

> <LogVP>
-2.8928

$$$$
102518
  -INDIGO-08031723152D

 36 37  0  0  0  0  0  0  0  0999 V2000
    0.0001   -0.0001    0.0000 P   0  0  0  0  0  0  0  0  0  0  0  0
    0.1672   -1.5912    0.0000 S   0  0  0  0  0  0  0  0  0  0  0  0
    1.4616   -0.6508    0.0000 O   0  0  0  0  0  0  0  0  0  0  0  0
    2.7560    0.2897    0.0000 C   0  0  0  0  0  0  0  0  0  0  0  0
    1.9927    1.6958    0.0000 H   0  0  0  0  0  0  0  0  0  0  0  0
    3.2105    1.8238    0.0000 H   0  0  0  0  0  0  0  0  0  0  0  0
    4.2177   -0.3611    0.0000 C   0  0  0  0  0  0  0  0  0  0  0  0
    5.6794   -1.0119    0.0000 H   0  0  0  0  0  0  0  0  0  0  0  0
    5.5121    0.5794    0.0000 H   0  0  0  0  0  0  0  0  0  0  0  0
    4.3851   -1.9524    0.0000 H   0  0  0  0  0  0  0  0  0  0  0  0
    1.2945    0.9404    0.0000 O   0  0  0  0  0  0  0  0  0  0  0  0
    1.1272    2.5317    0.0000 C   0  0  0  0  0  0  0  0  0  0  0  0
   -0.4723    2.5736    0.0000 H   0  0  0  0  0  0  0  0  0  0  0  0
    0.0257    3.6923    0.0000 H   0  0  0  0  0  0  0  0  0  0  0  0
    2.4216    3.4721    0.0000 C   0  0  0  0  0  0  0  0  0  0  0  0
    3.7160    4.4126    0.0000 H   0  0  0  0  0  0  0  0  0  0  0  0
    2.2545    5.0634    0.0000 H   0  0  0  0  0  0  0  0  0  0  0  0
    3.8833    2.8213    0.0000 H   0  0  0  0  0  0  0  0  0  0  0  0
   -1.4616    0.6507    0.0000 O   0  0  0  0  0  0  0  0  0  0  0  0
   -2.7560   -0.2897    0.0000 C   0  0  0  0  0  0  0  0  0  0  0  0
   -4.2779    0.2047    0.0000 N   0  0  0  0  0  0  0  0  0  0  0  0
   -5.2184   -1.0896    0.0000 N   0  0  0  0  0  0  0  0  0  0  0  0
   -6.8181   -1.0896    0.0000 C   0  0  0  0  0  0  0  0  0  0  0  0
   -7.6181    0.2960    0.0000 C   0  0  0  0  0  0  0  0  0  0  0  0
   -6.8181    1.6816    0.0000 H   0  0  0  0  0  0  0  0  0  0  0  0
   -9.2182    0.2960    0.0000 C   0  0  0  0  0  0  0  0  0  0  0  0
  -10.0182    1.6816    0.0000 H   0  0  0  0  0  0  0  0  0  0  0  0
  -10.0182   -1.0896    0.0000 C   0  0  0  0  0  0  0  0  0  0  0  0
  -11.6182   -1.0896    0.0000 H   0  0  0  0  0  0  0  0  0  0  0  0
   -9.2182   -2.4753    0.0000 C   0  0  0  0  0  0  0  0  0  0  0  0
  -10.0182   -3.8609    0.0000 H   0  0  0  0  0  0  0  0  0  0  0  0
   -7.6181   -2.4753    0.0000 C   0  0  0  0  0  0  0  0  0  0  0  0
   -6.8181   -3.8609    0.0000 H   0  0  0  0  0  0  0  0  0  0  0  0
   -4.2779   -2.3840    0.0000 C   0  0  0  0  0  0  0  0  0  0  0  0
   -4.7723   -3.9058    0.0000 H   0  0  0  0  0  0  0  0  0  0  0  0
   -2.7560   -1.8897    0.0000 N   0  0  0  0  0  0  0  0  0  0  0  0
  1  2  2  0  0  0  0
  1  3  1  0  0  0  0
  3  4  1  0  0  0  0
  4  5  1  0  0  0  0
  4  6  1  0  0  0  0
  4  7  1  0  0  0  0
  7  8  1  0  0  0  0
  7  9  1  0  0  0  0
  7 10  1  0  0  0  0
  1 11  1  0  0  0  0
 11 12  1  0  0  0  0
 12 13  1  0  0  0  0
 12 14  1  0  0  0  0
 12 15  1  0  0  0  0
 15 16  1  0  0  0  0
 15 17  1  0  0  0  0
 15 18  1  0  0  0  0
  1 19  1  0  0  0  0
 19 20  1  0  0  0  0
 20 21  2  0  0  0  0
 21 22  1  0  0  0  0
 22 23  1  0  0  0  0
 23 24  1  0  0  0  0
 24 25  1  0  0  0  0
 24 26  2  0  0  0  0
 26 27  1  0  0  0  0
 26 28  1  0  0  0  0
 28 29  1  0  0  0  0
 28 30  2  0  0  0  0
 30 31  1  0  0  0  0
 30 32  1  0  0  0  0
 32 23  2  0  0  0  0
 32 33  1  0  0  0  0
 22 34  1  0  0  0  0
 34 35  1  0  0  0  0
 34 36  2  0  0  0  0
 36 20  1  0  0  0  0
M  END
> <ChemID>
102518

> <source_casrn>
24017-47-8

> <CAS>
24017-47-8

> <SMILES>
CCOP(=S)(Oc1[n][n](c[n]1)-c1ccccc1)OCC

> <NAME>
TRIAZOPHOS

> <preferred_name>
Triazophos

> <iupac>
O,O-diethyl O-(1-phenyl-1H-1,2,4-triazol-3-yl) phosphorothioate

> <MPID>
26994

> <dsstox_substance_id>
DTXSID9037612

> <Canonical_QSARr>
CCOP(=S)(Oc1[n][n](c[n]1)-c1ccccc1)OCC

> <InChI_Code_QSARr>
InChI=1S/C12H16N3O3PS/c1-3-16-19(20,17-4-2)18-12-13-10-15(14-12)11-8-6-5-7-9-11/h5-10H,3-4H2,1-2H3

> <InChI Key_QSARr>
AMFGTOFWMRQMEM-UHFFFAOYSA-N

> <Salt_Solvent>
?

> <LogVP>
-5.5376

$$$$
102523
  -INDIGO-08031723152D

 26 27  0  0  0  0  0  0  0  0999 V2000
    0.4461    2.8161    0.0000 C   0  0  0  0  0  0  0  0  0  0  0  0
    1.5166    4.0052    0.0000 H   0  0  0  0  0  0  0  0  0  0  0  0
   -0.0484    4.3378    0.0000 H   0  0  0  0  0  0  0  0  0  0  0  0
    2.0111    2.4835    0.0000 H   0  0  0  0  0  0  0  0  0  0  0  0
    0.9404    1.2944    0.0000 C   0  0  0  0  0  0  0  0  0  0  0  0
    0.0000    0.0000    0.0000 C   0  0  0  0  0  0  0  0  0  0  0  0
   -1.6000    0.0000    0.0000 C   0  0  0  0  0  0  0  0  0  0  0  0
   -2.4000    1.3856    0.0000 N   0  0  0  0  0  0  0  0  0  0  0  0
   -1.6000    2.7713    0.0000 H   0  0  0  0  0  0  0  0  0  0  0  0
   -4.0000    1.3856    0.0000 C   0  0  0  0  0  0  0  0  0  0  0  0
   -4.7999    2.7713    0.0000 C   0  0  0  0  0  0  0  0  0  0  0  0
   -4.0000    4.1569    0.0000 H   0  0  0  0  0  0  0  0  0  0  0  0
   -6.4000    2.7713    0.0000 C   0  0  0  0  0  0  0  0  0  0  0  0
   -7.1999    4.1569    0.0000 H   0  0  0  0  0  0  0  0  0  0  0  0
   -7.1999    1.3856    0.0000 C   0  0  0  0  0  0  0  0  0  0  0  0
   -8.8000    1.3856    0.0000 H   0  0  0  0  0  0  0  0  0  0  0  0
   -6.4000    0.0000    0.0000 C   0  0  0  0  0  0  0  0  0  0  0  0
   -7.1999   -1.3857    0.0000 H   0  0  0  0  0  0  0  0  0  0  0  0
   -4.7999    0.0000    0.0000 C   0  0  0  0  0  0  0  0  0  0  0  0
   -4.0000   -1.3857    0.0000 H   0  0  0  0  0  0  0  0  0  0  0  0
   -2.4000   -1.3857    0.0000 O   0  0  0  0  0  0  0  0  0  0  0  0
    0.9404   -1.2944    0.0000 C   0  0  0  0  0  0  0  0  0  0  0  0
    0.4461   -2.8161    0.0000 H   0  0  0  0  0  0  0  0  0  0  0  0
    2.4621   -0.8000    0.0000 C   0  0  0  0  0  0  0  0  0  0  0  0
    3.7566   -1.7404    0.0000 H   0  0  0  0  0  0  0  0  0  0  0  0
    2.4621    0.8000    0.0000 O   0  0  0  0  0  0  0  0  0  0  0  0
  1  2  1  0  0  0  0
  1  3  1  0  0  0  0
  1  4  1  0  0  0  0
  1  5  1  0  0  0  0
  5  6  2  0  0  0  0
  6  7  1  0  0  0  0
  7  8  1  0  0  0  0
  8  9  1  0  0  0  0
  8 10  1  0  0  0  0
 10 11  1  0  0  0  0
 11 12  1  0  0  0  0
 11 13  2  0  0  0  0
 13 14  1  0  0  0  0
 13 15  1  0  0  0  0
 15 16  1  0  0  0  0
 15 17  2  0  0  0  0
 17 18  1  0  0  0  0
 17 19  1  0  0  0  0
 19 10  2  0  0  0  0
 19 20  1  0  0  0  0
  7 21  2  0  0  0  0
  6 22  1  0  0  0  0
 22 23  1  0  0  0  0
 22 24  2  0  0  0  0
 24 25  1  0  0  0  0
 24 26  1  0  0  0  0
 26  5  1  0  0  0  0
M  END
> <ChemID>
102523

> <source_casrn>
24691-80-3

> <CAS>
24691-80-3

> <SMILES>
Cc1occc1C(=O)Nc1ccccc1

> <NAME>
Fenfuram

> <preferred_name>
Fenfuram

> <iupac>
2-methyl-N-phenyl-3-furamide

> <MPID>
26998

> <dsstox_substance_id>
DTXSID8058035

> <Canonical_QSARr>
Cc1occc1C(=O)Nc1ccccc1

> <InChI_Code_QSARr>
InChI=1S/C12H11NO2/c1-9-11(7-8-15-9)12(14)13-10-5-3-2-4-6-10/h2-8H,1H3,(H,13,14)

> <InChI Key_QSARr>
JFSPBVWPKOEZCB-UHFFFAOYSA-N

> <Salt_Solvent>
?

> <LogVP>
-6.8239

$$$$
102527
  -INDIGO-08031723152D

 23 24  0  0  0  0  0  0  0  0999 V2000
   -3.6326    2.1735    0.0000 Cl  0  0  0  0  0  0  0  0  0  0  0  0
   -2.6042    0.9479    0.0000 C   0  0  0  0  0  0  0  0  0  0  0  0
   -1.0284    1.2257    0.0000 C   0  0  0  0  0  0  0  0  0  0  0  0
   -0.4813    2.7292    0.0000 H   0  0  0  0  0  0  0  0  0  0  0  0
    0.0000    0.0000    0.0000 C   0  0  0  0  0  0  0  0  0  0  0  0
    1.5756    0.2779    0.0000 O   0  0  0  0  0  0  0  0  0  0  0  0
    2.9614   -0.5221    0.0000 C   0  0  0  0  0  0  0  0  0  0  0  0
    2.9614   -2.1222    0.0000 C   0  0  0  0  0  0  0  0  0  0  0  0
    1.5756   -2.9222    0.0000 H   0  0  0  0  0  0  0  0  0  0  0  0
    4.3470   -2.9222    0.0000 C   0  0  0  0  0  0  0  0  0  0  0  0
    4.3470   -4.5222    0.0000 H   0  0  0  0  0  0  0  0  0  0  0  0
    5.7326   -2.1222    0.0000 C   0  0  0  0  0  0  0  0  0  0  0  0
    7.1183   -2.9222    0.0000 Cl  0  0  0  0  0  0  0  0  0  0  0  0
    5.7326   -0.5221    0.0000 C   0  0  0  0  0  0  0  0  0  0  0  0
    7.1183    0.2779    0.0000 H   0  0  0  0  0  0  0  0  0  0  0  0
    4.3470    0.2779    0.0000 C   0  0  0  0  0  0  0  0  0  0  0  0
    4.3470    1.8779    0.0000 H   0  0  0  0  0  0  0  0  0  0  0  0
   -0.5473   -1.5035    0.0000 C   0  0  0  0  0  0  0  0  0  0  0  0
    0.4812   -2.7292    0.0000 H   0  0  0  0  0  0  0  0  0  0  0  0
   -2.1229   -1.7813    0.0000 C   0  0  0  0  0  0  0  0  0  0  0  0
   -2.6702   -3.2849    0.0000 Cl  0  0  0  0  0  0  0  0  0  0  0  0
   -3.1513   -0.5556    0.0000 C   0  0  0  0  0  0  0  0  0  0  0  0
   -4.7271   -0.8335    0.0000 H   0  0  0  0  0  0  0  0  0  0  0  0
  1  2  1  0  0  0  0
  2  3  1  0  0  0  0
  3  4  1  0  0  0  0
  3  5  2  0  0  0  0
  5  6  1  0  0  0  0
  6  7  1  0  0  0  0
  7  8  1  0  0  0  0
  8  9  1  0  0  0  0
  8 10  2  0  0  0  0
 10 11  1  0  0  0  0
 10 12  1  0  0  0  0
 12 13  1  0  0  0  0
 12 14  2  0  0  0  0
 14 15  1  0  0  0  0
 14 16  1  0  0  0  0
 16  7  2  0  0  0  0
 16 17  1  0  0  0  0
  5 18  1  0  0  0  0
 18 19  1  0  0  0  0
 18 20  2  0  0  0  0
 20 21  1  0  0  0  0
 20 22  1  0  0  0  0
 22  2  2  0  0  0  0
 22 23  1  0  0  0  0
M  END
> <ChemID>
102527

> <source_casrn>
24910-73-4

> <CAS>
24910-73-4

> <SMILES>
Clc1ccc(cc1)Oc1cc(Cl)cc(Cl)c1

> <NAME>
3,4',5-Trichlorodiphenyl ether

> <preferred_name>
3,4',5-Trichlorodiphenyl ether

> <iupac>
1,3-dichloro-5-(4-chlorophenoxy)benzene

> <MPID>
27002

> <dsstox_substance_id>
DTXSID40179623

> <Canonical_QSARr>
Clc1ccc(cc1)Oc1cc(Cl)cc(Cl)c1

> <InChI_Code_QSARr>
InChI=1S/C12H7Cl3O/c13-8-1-3-11(4-2-8)16-12-6-9(14)5-10(15)7-12/h1-7H

> <InChI Key_QSARr>
CCEZFZGXWFJQEF-UHFFFAOYSA-N

> <Salt_Solvent>
?

> <LogVP>
-3.7645

$$$$
102541
  -INDIGO-08031723152D

 28 28  0  0  0  0  0  0  0  0999 V2000
   -8.3138    0.0000    0.0000 C   0  0  0  0  0  0  0  0  0  0  0  0
   -7.7015    1.4782    0.0000 H   0  0  0  0  0  0  0  0  0  0  0  0
   -8.9262    1.4782    0.0000 H   0  0  0  0  0  0  0  0  0  0  0  0
   -9.6994   -0.8001    0.0000 C   0  0  0  0  0  0  0  0  0  0  0  0
  -11.0851   -1.6000    0.0000 H   0  0  0  0  0  0  0  0  0  0  0  0
  -11.0851    0.0000    0.0000 H   0  0  0  0  0  0  0  0  0  0  0  0
   -9.6994   -2.4001    0.0000 H   0  0  0  0  0  0  0  0  0  0  0  0
   -6.9281   -0.8001    0.0000 S   0  0  0  0  0  0  0  0  0  0  0  0
   -5.5426    0.0000    0.0000 C   0  0  0  0  0  0  0  0  0  0  0  0
   -4.1568   -0.8001    0.0000 C   0  0  0  0  0  0  0  0  0  0  0  0
   -4.7691   -2.2782    0.0000 H   0  0  0  0  0  0  0  0  0  0  0  0
   -3.5447   -2.2782    0.0000 H   0  0  0  0  0  0  0  0  0  0  0  0
   -2.7713    0.0000    0.0000 O   0  0  0  0  0  0  0  0  0  0  0  0
   -1.3855   -0.8001    0.0000 C   0  0  0  0  0  0  0  0  0  0  0  0
    0.0000    0.0000    0.0000 C   0  0  0  0  0  0  0  0  0  0  0  0
    0.0000    1.6000    0.0000 C   0  0  0  0  0  0  0  0  0  0  0  0
    0.0000    3.2000    0.0000 H   0  0  0  0  0  0  0  0  0  0  0  0
    1.3857    2.4001    0.0000 H   0  0  0  0  0  0  0  0  0  0  0  0
   -1.3855    2.4001    0.0000 H   0  0  0  0  0  0  0  0  0  0  0  0
    1.3857   -0.7999    0.0000 C   0  0  0  0  0  0  0  0  0  0  0  0
    2.7713    0.0000    0.0000 H   0  0  0  0  0  0  0  0  0  0  0  0
    1.3857   -2.4001    0.0000 C   0  0  0  0  0  0  0  0  0  0  0  0
    2.7713   -3.2000    0.0000 Cl  0  0  0  0  0  0  0  0  0  0  0  0
    0.0000   -3.2000    0.0000 C   0  0  0  0  0  0  0  0  0  0  0  0
    0.0000   -4.8000    0.0000 H   0  0  0  0  0  0  0  0  0  0  0  0
   -1.3855   -2.4001    0.0000 C   0  0  0  0  0  0  0  0  0  0  0  0
   -2.7713   -3.2000    0.0000 H   0  0  0  0  0  0  0  0  0  0  0  0
   -5.5426    1.6000    0.0000 O   0  0  0  0  0  0  0  0  0  0  0  0
  1  2  1  0  0  0  0
  1  3  1  0  0  0  0
  1  4  1  0  0  0  0
  4  5  1  0  0  0  0
  4  6  1  0  0  0  0
  4  7  1  0  0  0  0
  1  8  1  0  0  0  0
  8  9  1  0  0  0  0
  9 10  1  0  0  0  0
 10 11  1  0  0  0  0
 10 12  1  0  0  0  0
 10 13  1  0  0  0  0
 13 14  1  0  0  0  0
 14 15  1  0  0  0  0
 15 16  1  0  0  0  0
 16 17  1  0  0  0  0
 16 18  1  0  0  0  0
 16 19  1  0  0  0  0
 15 20  2  0  0  0  0
 20 21  1  0  0  0  0
 20 22  1  0  0  0  0
 22 23  1  0  0  0  0
 22 24  2  0  0  0  0
 24 25  1  0  0  0  0
 24 26  1  0  0  0  0
 26 14  2  0  0  0  0
 26 27  1  0  0  0  0
  9 28  2  0  0  0  0
M  END
> <ChemID>
102541

> <source_casrn>
25319-90-8

> <CAS>
25319-90-8

> <SMILES>
Cc1cc(Cl)ccc1OCC(=O)SCC

> <NAME>
MCPA-thioethyl

> <preferred_name>
MCPA-thioethyl

> <iupac>
S-ethyl (4-chloro-2-methylphenoxy)ethanethioate

> <MPID>
27007

> <dsstox_substance_id>
DTXSID0042115

> <Canonical_QSARr>
Cc1cc(Cl)ccc1OCC(=O)SCC

> <InChI_Code_QSARr>
InChI=1S/C11H13ClO2S/c1-3-15-11(13)7-14-10-5-4-9(12)6-8(10)2/h4-6H,3,7H2,1-2H3

> <InChI Key_QSARr>
AZFKQCNGMSSWDS-UHFFFAOYSA-N

> <Salt_Solvent>
?

> <LogVP>
-3.8013

$$$$
102558
  -INDIGO-08031723152D

 15 14  0  0  0  0  0  0  0  0999 V2000
    2.7713    0.0000    0.0000 F   0  0  0  0  0  0  0  0  0  0  0  0
    1.3856   -0.8000    0.0000 C   0  0  0  0  0  0  0  0  0  0  0  0
    2.7713   -1.6000    0.0000 F   0  0  0  0  0  0  0  0  0  0  0  0
    1.3856   -2.4000    0.0000 F   0  0  0  0  0  0  0  0  0  0  0  0
    0.0001    0.0000    0.0000 C   0  0  0  0  0  0  0  0  0  0  0  0
   -0.8000   -1.3856    0.0000 H   0  0  0  0  0  0  0  0  0  0  0  0
    0.8000    1.3856    0.0000 O   0  0  0  0  0  0  0  0  0  0  0  0
    2.4000    1.3856    0.0000 C   0  0  0  0  0  0  0  0  0  0  0  0
    3.2000    2.7713    0.0000 H   0  0  0  0  0  0  0  0  0  0  0  0
    4.0000    1.3856    0.0000 F   0  0  0  0  0  0  0  0  0  0  0  0
    1.6000    2.7713    0.0000 F   0  0  0  0  0  0  0  0  0  0  0  0
   -1.3856    0.8000    0.0000 C   0  0  0  0  0  0  0  0  0  0  0  0
   -2.7713    1.6000    0.0000 F   0  0  0  0  0  0  0  0  0  0  0  0
   -2.7713    0.0000    0.0000 F   0  0  0  0  0  0  0  0  0  0  0  0
   -1.3856    2.4000    0.0000 F   0  0  0  0  0  0  0  0  0  0  0  0
  1  2  1  0  0  0  0
  2  3  1  0  0  0  0
  2  4  1  0  0  0  0
  2  5  1  0  0  0  0
  5  6  1  0  0  0  0
  5  7  1  0  0  0  0
  7  8  1  0  0  0  0
  8  9  1  0  0  0  0
  8 10  1  0  0  0  0
  8 11  1  0  0  0  0
  5 12  1  0  0  0  0
 12 13  1  0  0  0  0
 12 14  1  0  0  0  0
 12 15  1  0  0  0  0
M  END
> <ChemID>
102558

> <source_casrn>
26103-08-2

> <CAS>
26103-08-2

> <SMILES>
FC(F)OC(C(F)(F)F)C(F)(F)F

> <NAME>
CHF2-O-CH(CF3)CF3

> <preferred_name>
26103-08-2

> <iupac>
C4H2F8O

> <MPID>
27012

> <dsstox_substance_id>
DTXSID60448843

> <Canonical_QSARr>
FC(F)OC(C(F)(F)F)C(F)(F)F

> <InChI_Code_QSARr>
InChI=1S/C4H2F8O/c5-2(6)13-1(3(7,8)9)4(10,11)12/h1-2H

> <InChI Key_QSARr>
UNIYHTKWMKXESF-UHFFFAOYSA-N

> <Salt_Solvent>
?

> <LogVP>
2.5877

$$$$
102564
  -INDIGO-08031723152D

 14 14  0  0  0  0  0  0  0  0999 V2000
    0.0000    0.0000    0.0000 C   0  0  0  0  0  0  0  0  0  0  0  0
   -0.3327    1.5650    0.0000 C   0  0  0  0  0  0  0  0  0  0  0  0
    0.7380    2.7541    0.0000 H   0  0  0  0  0  0  0  0  0  0  0  0
   -1.9238    1.7323    0.0000 C   0  0  0  0  0  0  0  0  0  0  0  0
   -2.7239    3.1179    0.0000 H   0  0  0  0  0  0  0  0  0  0  0  0
   -2.5747    0.2706    0.0000 C   0  0  0  0  0  0  0  0  0  0  0  0
   -4.1397   -0.0621    0.0000 H   0  0  0  0  0  0  0  0  0  0  0  0
   -1.3856   -0.8000    0.0000 C   0  0  0  0  0  0  0  0  0  0  0  0
   -2.5747   -1.8706    0.0000 H   0  0  0  0  0  0  0  0  0  0  0  0
   -0.4452   -2.0944    0.0000 H   0  0  0  0  0  0  0  0  0  0  0  0
    1.4617   -0.6508    0.0000 C   0  0  0  0  0  0  0  0  0  0  0  0
    2.9233   -1.3015    0.0000 H   0  0  0  0  0  0  0  0  0  0  0  0
    2.7561    0.2897    0.0000 H   0  0  0  0  0  0  0  0  0  0  0  0
    1.6290   -2.2420    0.0000 H   0  0  0  0  0  0  0  0  0  0  0  0
  1  2  2  0  0  0  0
  2  3  1  0  0  0  0
  2  4  1  0  0  0  0
  4  5  1  0  0  0  0
  4  6  2  0  0  0  0
  6  7  1  0  0  0  0
  6  8  1  0  0  0  0
  8  1  1  0  0  0  0
  8  9  1  0  0  0  0
  8 10  1  0  0  0  0
  1 11  1  0  0  0  0
 11 12  1  0  0  0  0
 11 13  1  0  0  0  0
 11 14  1  0  0  0  0
M  END
> <ChemID>
102564

> <source_casrn>
26519-91-5

> <CAS>
26519-91-5

> <SMILES>
CC1CC=CC=1

> <NAME>
Methylcyclopentadiene

> <preferred_name>
1,3-Cyclopentadiene, methyl-

> <iupac>
1-methylcyclopenta-1,3-diene

> <MPID>
27016

> <dsstox_substance_id>
DTXSID0067216

> <Canonical_QSARr>
CC1CC=CC=1

> <InChI_Code_QSARr>
InChI=1S/C6H8/c1-6-4-2-3-5-6/h2-4H,5H2,1H3

> <InChI Key_QSARr>
NFWSQSCIDYBUOU-UHFFFAOYSA-N

> <Salt_Solvent>
?

> <LogVP>
2.0934

$$$$
102581
  -INDIGO-08031723152D

 14 13  0  0  0  0  0  0  0  0999 V2000
    1.6000    0.0000    0.0000 C   0  0  0  0  0  0  0  0  0  0  0  0
    3.2000    0.0000    0.0000 H   0  0  0  0  0  0  0  0  0  0  0  0
    0.0000    0.0000    0.0000 C   0  0  0  0  0  0  0  0  0  0  0  0
    0.0000   -1.6000    0.0000 H   0  0  0  0  0  0  0  0  0  0  0  0
   -1.6000    0.0000    0.0000 C   0  0  0  0  0  0  0  0  0  0  0  0
   -3.2000    0.0000    0.0000 H   0  0  0  0  0  0  0  0  0  0  0  0
   -2.4000   -1.3856    0.0000 H   0  0  0  0  0  0  0  0  0  0  0  0
   -2.4000    1.3856    0.0000 H   0  0  0  0  0  0  0  0  0  0  0  0
    0.0000    1.6000    0.0000 C   0  0  0  0  0  0  0  0  0  0  0  0
   -0.0000    3.2000    0.0000 H   0  0  0  0  0  0  0  0  0  0  0  0
    1.3856    2.4000    0.0000 H   0  0  0  0  0  0  0  0  0  0  0  0
   -1.3856    2.4000    0.0000 H   0  0  0  0  0  0  0  0  0  0  0  0
    2.4000   -1.3856    0.0000 Cl  0  0  0  0  0  0  0  0  0  0  0  0
    2.4000    1.3856    0.0000 Cl  0  0  0  0  0  0  0  0  0  0  0  0
  1  2  1  0  0  0  0
  1  3  1  0  0  0  0
  3  4  1  0  0  0  0
  3  5  1  0  0  0  0
  5  6  1  0  0  0  0
  5  7  1  0  0  0  0
  5  8  1  0  0  0  0
  3  9  1  0  0  0  0
  9 10  1  0  0  0  0
  9 11  1  0  0  0  0
  9 12  1  0  0  0  0
  1 13  1  0  0  0  0
  1 14  1  0  0  0  0
M  END
> <ChemID>
102581

> <source_casrn>
27177-44-2

> <CAS>
NOCAS_870661

> <SMILES>
CC(C)C(Cl)Cl

> <NAME>
Propane, dichloro-2-methyl-

> <preferred_name>
Propane, dichloro-2-methyl-

> <iupac>
1,2-DICHLORO-2-METHYLPROPANE

> <MPID>
27020

> <dsstox_substance_id>
DTXSID20870661

> <Canonical_QSARr>
CC(C)C(Cl)Cl

> <InChI_Code_QSARr>
InChI=1S/C4H8Cl2/c1-3(2)4(5)6/h3-4H,1-2H3

> <InChI Key_QSARr>
JVHKSSIDGAUKGK-UHFFFAOYSA-N

> <Salt_Solvent>
?

> <LogVP>
1.6021

$$$$
102587
  -INDIGO-08031723152D

 66 66  0  0  0  0  0  0  0  0999 V2000
   -9.6000   -5.5425    0.0000 C   0  0  0  0  0  0  0  0  0  0  0  0
   -8.8001   -6.9281    0.0000 C   0  0  0  0  0  0  0  0  0  0  0  0
   -7.2001   -6.9281    0.0000 H   0  0  0  0  0  0  0  0  0  0  0  0
   -9.6000   -8.3139    0.0000 C   0  0  0  0  0  0  0  0  0  0  0  0
   -8.8001   -9.6995    0.0000 H   0  0  0  0  0  0  0  0  0  0  0  0
  -11.2000   -8.3139    0.0000 C   0  0  0  0  0  0  0  0  0  0  0  0
  -11.9999   -9.6995    0.0000 H   0  0  0  0  0  0  0  0  0  0  0  0
  -11.9999   -6.9281    0.0000 C   0  0  0  0  0  0  0  0  0  0  0  0
  -13.5999   -6.9281    0.0000 H   0  0  0  0  0  0  0  0  0  0  0  0
  -11.2000   -5.5425    0.0000 C   0  0  0  0  0  0  0  0  0  0  0  0
  -11.9999   -4.1570    0.0000 C   0  0  0  0  0  0  0  0  0  0  0  0
  -11.2000   -2.7714    0.0000 O   0  0  0  0  0  0  0  0  0  0  0  0
  -13.5999   -4.1570    0.0000 O   0  0  0  0  0  0  0  0  0  0  0  0
  -14.4002   -2.7714    0.0000 C   0  0  0  0  0  0  0  0  0  0  0  0
  -13.1305   -1.7972    0.0000 H   0  0  0  0  0  0  0  0  0  0  0  0
  -14.1913   -1.1850    0.0000 H   0  0  0  0  0  0  0  0  0  0  0  0
  -15.9998   -2.7714    0.0000 C   0  0  0  0  0  0  0  0  0  0  0  0
  -17.2695   -3.7454    0.0000 H   0  0  0  0  0  0  0  0  0  0  0  0
  -16.2087   -4.3576    0.0000 H   0  0  0  0  0  0  0  0  0  0  0  0
  -16.8001   -1.3856    0.0000 C   0  0  0  0  0  0  0  0  0  0  0  0
  -15.5304   -0.4116    0.0000 H   0  0  0  0  0  0  0  0  0  0  0  0
  -16.5912    0.2006    0.0000 H   0  0  0  0  0  0  0  0  0  0  0  0
  -18.4001   -1.3856    0.0000 C   0  0  0  0  0  0  0  0  0  0  0  0
  -19.6694   -2.3596    0.0000 H   0  0  0  0  0  0  0  0  0  0  0  0
  -18.6090   -2.9720    0.0000 H   0  0  0  0  0  0  0  0  0  0  0  0
  -19.2000    0.0000    0.0000 C   0  0  0  0  0  0  0  0  0  0  0  0
  -17.9308    0.9740    0.0000 H   0  0  0  0  0  0  0  0  0  0  0  0
  -18.9911    1.5864    0.0000 H   0  0  0  0  0  0  0  0  0  0  0  0
  -20.8000    0.0000    0.0000 C   0  0  0  0  0  0  0  0  0  0  0  0
  -20.5221   -1.5756    0.0000 H   0  0  0  0  0  0  0  0  0  0  0  0
  -22.3757   -0.2779    0.0000 C   0  0  0  0  0  0  0  0  0  0  0  0
  -23.9514   -0.5557    0.0000 H   0  0  0  0  0  0  0  0  0  0  0  0
  -23.4042    0.9479    0.0000 H   0  0  0  0  0  0  0  0  0  0  0  0
  -22.9229   -1.7813    0.0000 H   0  0  0  0  0  0  0  0  0  0  0  0
  -21.0780    1.5758    0.0000 C   0  0  0  0  0  0  0  0  0  0  0  0
  -21.3559    3.1514    0.0000 H   0  0  0  0  0  0  0  0  0  0  0  0
  -19.8522    2.6041    0.0000 H   0  0  0  0  0  0  0  0  0  0  0  0
  -22.5813    2.1229    0.0000 H   0  0  0  0  0  0  0  0  0  0  0  0
   -8.8001   -4.1570    0.0000 C   0  0  0  0  0  0  0  0  0  0  0  0
   -9.6000   -2.7714    0.0000 O   0  0  0  0  0  0  0  0  0  0  0  0
   -7.2001   -4.1570    0.0000 O   0  0  0  0  0  0  0  0  0  0  0  0
   -6.3998   -2.7714    0.0000 C   0  0  0  0  0  0  0  0  0  0  0  0
   -6.6087   -1.1850    0.0000 H   0  0  0  0  0  0  0  0  0  0  0  0
   -7.6695   -1.7972    0.0000 H   0  0  0  0  0  0  0  0  0  0  0  0
   -4.8002   -2.7714    0.0000 C   0  0  0  0  0  0  0  0  0  0  0  0
   -4.5913   -4.3576    0.0000 H   0  0  0  0  0  0  0  0  0  0  0  0
   -3.5305   -3.7454    0.0000 H   0  0  0  0  0  0  0  0  0  0  0  0
   -3.9999   -1.3856    0.0000 C   0  0  0  0  0  0  0  0  0  0  0  0
   -4.2088    0.2006    0.0000 H   0  0  0  0  0  0  0  0  0  0  0  0
   -5.2696   -0.4116    0.0000 H   0  0  0  0  0  0  0  0  0  0  0  0
   -2.3999   -1.3856    0.0000 C   0  0  0  0  0  0  0  0  0  0  0  0
   -2.1910   -2.9720    0.0000 H   0  0  0  0  0  0  0  0  0  0  0  0
   -1.1306   -2.3596    0.0000 H   0  0  0  0  0  0  0  0  0  0  0  0
   -1.6000    0.0000    0.0000 C   0  0  0  0  0  0  0  0  0  0  0  0
   -1.8089    1.5864    0.0000 H   0  0  0  0  0  0  0  0  0  0  0  0
   -2.8692    0.9740    0.0000 H   0  0  0  0  0  0  0  0  0  0  0  0
    0.0000    0.0000    0.0000 C   0  0  0  0  0  0  0  0  0  0  0  0
   -0.2779   -1.5756    0.0000 H   0  0  0  0  0  0  0  0  0  0  0  0
    1.5757   -0.2779    0.0000 C   0  0  0  0  0  0  0  0  0  0  0  0
    3.1514   -0.5557    0.0000 H   0  0  0  0  0  0  0  0  0  0  0  0
    2.6042    0.9479    0.0000 H   0  0  0  0  0  0  0  0  0  0  0  0
    2.1229   -1.7813    0.0000 H   0  0  0  0  0  0  0  0  0  0  0  0
    0.2780    1.5758    0.0000 C   0  0  0  0  0  0  0  0  0  0  0  0
    0.5559    3.1514    0.0000 H   0  0  0  0  0  0  0  0  0  0  0  0
   -0.9478    2.6041    0.0000 H   0  0  0  0  0  0  0  0  0  0  0  0
    1.7813    2.1229    0.0000 H   0  0  0  0  0  0  0  0  0  0  0  0
  1  2  1  0  0  0  0
  2  3  1  0  0  0  0
  2  4  2  0  0  0  0
  4  5  1  0  0  0  0
  4  6  1  0  0  0  0
  6  7  1  0  0  0  0
  6  8  2  0  0  0  0
  8  9  1  0  0  0  0
  8 10  1  0  0  0  0
 10  1  2  0  0  0  0
 10 11  1  0  0  0  0
 11 12  2  0  0  0  0
 11 13  1  0  0  0  0
 13 14  1  0  0  0  0
 14 15  1  0  0  0  0
 14 16  1  0  0  0  0
 14 17  1  0  0  0  0
 17 18  1  0  0  0  0
 17 19  1  0  0  0  0
 17 20  1  0  0  0  0
 20 21  1  0  0  0  0
 20 22  1  0  0  0  0
 20 23  1  0  0  0  0
 23 24  1  0  0  0  0
 23 25  1  0  0  0  0
 23 26  1  0  0  0  0
 26 27  1  0  0  0  0
 26 28  1  0  0  0  0
 26 29  1  0  0  0  0
 29 30  1  0  0  0  0
 29 31  1  0  0  0  0
 31 32  1  0  0  0  0
 31 33  1  0  0  0  0
 31 34  1  0  0  0  0
 29 35  1  0  0  0  0
 35 36  1  0  0  0  0
 35 37  1  0  0  0  0
 35 38  1  0  0  0  0
  1 39  1  0  0  0  0
 39 40  2  0  0  0  0
 39 41  1  0  0  0  0
 41 42  1  0  0  0  0
 42 43  1  0  0  0  0
 42 44  1  0  0  0  0
 42 45  1  0  0  0  0
 45 46  1  0  0  0  0
 45 47  1  0  0  0  0
 45 48  1  0  0  0  0
 48 49  1  0  0  0  0
 48 50  1  0  0  0  0
 48 51  1  0  0  0  0
 51 52  1  0  0  0  0
 51 53  1  0  0  0  0
 51 54  1  0  0  0  0
 54 55  1  0  0  0  0
 54 56  1  0  0  0  0
 54 57  1  0  0  0  0
 57 58  1  0  0  0  0
 57 59  1  0  0  0  0
 59 60  1  0  0  0  0
 59 61  1  0  0  0  0
 59 62  1  0  0  0  0
 57 63  1  0  0  0  0
 63 64  1  0  0  0  0
 63 65  1  0  0  0  0
 63 66  1  0  0  0  0
M  END
> <ChemID>
102587

> <source_casrn>
27554-26-3

> <CAS>
131-20-4

> <SMILES>
CC(C)CCCCCOC(=O)c1ccccc1C(=O)OCCCCCC(C)C

> <NAME>
DIISOOCTYL PHTHALATE

> <preferred_name>
Diisooctyl phthalate

> <iupac>
bis(6-methylheptyl) benzene-1,2-dicarboxylate

> <MPID>
27024

> <dsstox_substance_id>
DTXSID50873226

> <Canonical_QSARr>
CC(C)CCCCCOC(=O)c1ccccc1C(=O)OCCCCCC(C)C

> <InChI_Code_QSARr>
InChI=1S/C24H38O4/c1-19(2)13-7-5-11-17-27-23(25)21-15-9-10-16-22(21)24(26)28-18-12-6-8-14-20(3)4/h9-10,15-16,19-20H,5-8,11-14,17-18H2,1-4H3

> <InChI Key_QSARr>
IJFPVINAQGWBRJ-UHFFFAOYSA-N

> <Salt_Solvent>
?

> <LogVP>
-5.2596

$$$$
102596
  -INDIGO-08031723152D

 46 46  0  0  0  0  0  0  0  0999 V2000
  -13.4851   -1.3856    0.0000 Cl  0  0  0  0  0  0  0  0  0  0  0  0
  -12.6851   -2.7713    0.0000 C   0  0  0  0  0  0  0  0  0  0  0  0
  -11.0852   -2.7713    0.0000 C   0  0  0  0  0  0  0  0  0  0  0  0
  -10.2852   -1.3856    0.0000 O   0  0  0  0  0  0  0  0  0  0  0  0
  -11.0852    0.0000    0.0000 C   0  0  0  0  0  0  0  0  0  0  0  0
  -12.4707   -0.8001    0.0000 H   0  0  0  0  0  0  0  0  0  0  0  0
   -9.6994    0.8000    0.0000 C   0  0  0  0  0  0  0  0  0  0  0  0
   -9.6994    2.3999    0.0000 O   0  0  0  0  0  0  0  0  0  0  0  0
   -8.3139    0.0000    0.0000 O   0  0  0  0  0  0  0  0  0  0  0  0
   -6.9281    0.8000    0.0000 C   0  0  0  0  0  0  0  0  0  0  0  0
   -6.3159    2.2783    0.0000 H   0  0  0  0  0  0  0  0  0  0  0  0
   -7.5405    2.2783    0.0000 H   0  0  0  0  0  0  0  0  0  0  0  0
   -5.5426    0.0000    0.0000 C   0  0  0  0  0  0  0  0  0  0  0  0
   -6.1547   -1.4782    0.0000 H   0  0  0  0  0  0  0  0  0  0  0  0
   -4.9301   -1.4782    0.0000 H   0  0  0  0  0  0  0  0  0  0  0  0
   -4.1568    0.8000    0.0000 C   0  0  0  0  0  0  0  0  0  0  0  0
   -3.5446    2.2783    0.0000 H   0  0  0  0  0  0  0  0  0  0  0  0
   -4.7692    2.2783    0.0000 H   0  0  0  0  0  0  0  0  0  0  0  0
   -2.7713    0.0000    0.0000 C   0  0  0  0  0  0  0  0  0  0  0  0
   -3.3837   -1.4782    0.0000 H   0  0  0  0  0  0  0  0  0  0  0  0
   -2.1591   -1.4782    0.0000 H   0  0  0  0  0  0  0  0  0  0  0  0
   -1.3858    0.8000    0.0000 C   0  0  0  0  0  0  0  0  0  0  0  0
   -0.7733    2.2781    0.0000 H   0  0  0  0  0  0  0  0  0  0  0  0
   -1.9979    2.2783    0.0000 H   0  0  0  0  0  0  0  0  0  0  0  0
    0.0000    0.0000    0.0000 C   0  0  0  0  0  0  0  0  0  0  0  0
   -1.0286   -1.2257    0.0000 H   0  0  0  0  0  0  0  0  0  0  0  0
    1.2257   -1.0284    0.0000 C   0  0  0  0  0  0  0  0  0  0  0  0
    2.4514   -2.0569    0.0000 H   0  0  0  0  0  0  0  0  0  0  0  0
    2.7292   -0.4813    0.0000 H   0  0  0  0  0  0  0  0  0  0  0  0
    0.9479   -2.6041    0.0000 H   0  0  0  0  0  0  0  0  0  0  0  0
    1.0283    1.2257    0.0000 C   0  0  0  0  0  0  0  0  0  0  0  0
    2.0569    2.4513    0.0000 H   0  0  0  0  0  0  0  0  0  0  0  0
    2.6041    0.9479    0.0000 H   0  0  0  0  0  0  0  0  0  0  0  0
    0.4812    2.7291    0.0000 H   0  0  0  0  0  0  0  0  0  0  0  0
  -11.8852    1.3857    0.0000 C   0  0  0  0  0  0  0  0  0  0  0  0
  -12.6851    2.7713    0.0000 H   0  0  0  0  0  0  0  0  0  0  0  0
  -11.0852    2.7713    0.0000 H   0  0  0  0  0  0  0  0  0  0  0  0
  -13.4851    1.3857    0.0000 H   0  0  0  0  0  0  0  0  0  0  0  0
  -10.2852   -4.1570    0.0000 C   0  0  0  0  0  0  0  0  0  0  0  0
   -8.6852   -4.1570    0.0000 H   0  0  0  0  0  0  0  0  0  0  0  0
  -11.0852   -5.5426    0.0000 C   0  0  0  0  0  0  0  0  0  0  0  0
  -10.2852   -6.9282    0.0000 H   0  0  0  0  0  0  0  0  0  0  0  0
  -12.6851   -5.5426    0.0000 C   0  0  0  0  0  0  0  0  0  0  0  0
  -13.4851   -6.9282    0.0000 Cl  0  0  0  0  0  0  0  0  0  0  0  0
  -13.4851   -4.1570    0.0000 C   0  0  0  0  0  0  0  0  0  0  0  0
  -15.0851   -4.1570    0.0000 H   0  0  0  0  0  0  0  0  0  0  0  0
  1  2  1  0  0  0  0
  2  3  1  0  0  0  0
  3  4  1  0  0  0  0
  4  5  1  0  0  0  0
  5  6  1  0  0  0  0
  5  7  1  0  0  0  0
  7  8  2  0  0  0  0
  7  9  1  0  0  0  0
  9 10  1  0  0  0  0
 10 11  1  0  0  0  0
 10 12  1  0  0  0  0
 10 13  1  0  0  0  0
 13 14  1  0  0  0  0
 13 15  1  0  0  0  0
 13 16  1  0  0  0  0
 16 17  1  0  0  0  0
 16 18  1  0  0  0  0
 16 19  1  0  0  0  0
 19 20  1  0  0  0  0
 19 21  1  0  0  0  0
 19 22  1  0  0  0  0
 22 23  1  0  0  0  0
 22 24  1  0  0  0  0
 22 25  1  0  0  0  0
 25 26  1  0  0  0  0
 25 27  1  0  0  0  0
 27 28  1  0  0  0  0
 27 29  1  0  0  0  0
 27 30  1  0  0  0  0
 25 31  1  0  0  0  0
 31 32  1  0  0  0  0
 31 33  1  0  0  0  0
 31 34  1  0  0  0  0
  5 35  1  0  0  0  0
 35 36  1  0  0  0  0
 35 37  1  0  0  0  0
 35 38  1  0  0  0  0
  3 39  2  0  0  0  0
 39 40  1  0  0  0  0
 39 41  1  0  0  0  0
 41 42  1  0  0  0  0
 41 43  2  0  0  0  0
 43 44  1  0  0  0  0
 43 45  1  0  0  0  0
 45  2  2  0  0  0  0
 45 46  1  0  0  0  0
M  END
> <ChemID>
102596

> <source_casrn>
28631-35-8

> <CAS>
28631-35-8

> <SMILES>
CC(C)CCCCCOC(=O)C(C)Oc1ccc(Cl)cc1Cl

> <NAME>
DICHLORPROP-ISOOCTYL

> <preferred_name>
Dichlorprop-isooctyl

> <iupac>
6-methylheptyl 2-(2,4-dichlorophenoxy)propanoate

> <MPID>
27029

> <dsstox_substance_id>
DTXSID7034678

> <Canonical_QSARr>
CC(C)CCCCCOC(=O)C(C)Oc1ccc(Cl)cc1Cl

> <InChI_Code_QSARr>
InChI=1S/C17H24Cl2O3/c1-12(2)7-5-4-6-10-21-17(20)13(3)22-16-9-8-14(18)11-15(16)19/h8-9,11-13H,4-7,10H2,1-3H3

> <InChI Key_QSARr>
OAKNYWMOJIXXDI-UHFFFAOYSA-N

> <Salt_Solvent>
?

> <LogVP>
-5.4711

$$$$
102601
  -INDIGO-08031723152D

 39 39  0  0  0  0  0  0  0  0999 V2000
   -2.4000   -1.3856    0.0000 N   0  0  0  0  0  0  0  0  0  0  0  0
   -0.8000   -1.3856    0.0000 C   0  0  0  0  0  0  0  0  0  0  0  0
    0.0000   -0.0001    0.0000 N   0  0  0  0  0  0  0  0  0  0  0  0
   -0.8000    1.3856    0.0000 C   0  0  0  0  0  0  0  0  0  0  0  0
   -2.2782    1.9979    0.0000 H   0  0  0  0  0  0  0  0  0  0  0  0
   -2.2782    0.7733    0.0000 H   0  0  0  0  0  0  0  0  0  0  0  0
    0.0000    2.7713    0.0000 C   0  0  0  0  0  0  0  0  0  0  0  0
    0.8000    4.1569    0.0000 H   0  0  0  0  0  0  0  0  0  0  0  0
   -0.8000    4.1569    0.0000 H   0  0  0  0  0  0  0  0  0  0  0  0
    1.6000    2.7713    0.0000 H   0  0  0  0  0  0  0  0  0  0  0  0
    1.6000   -0.0001    0.0000 C   0  0  0  0  0  0  0  0  0  0  0  0
    1.8088   -1.5863    0.0000 H   0  0  0  0  0  0  0  0  0  0  0  0
    2.8694   -0.9740    0.0000 H   0  0  0  0  0  0  0  0  0  0  0  0
    2.4000    1.3856    0.0000 C   0  0  0  0  0  0  0  0  0  0  0  0
    4.0000    1.3856    0.0000 H   0  0  0  0  0  0  0  0  0  0  0  0
    3.2000    2.7713    0.0000 H   0  0  0  0  0  0  0  0  0  0  0  0
    3.2000   -0.0001    0.0000 H   0  0  0  0  0  0  0  0  0  0  0  0
    0.0000   -2.7712    0.0000 N   0  0  0  0  0  0  0  0  0  0  0  0
   -0.8000   -4.1569    0.0000 C   0  0  0  0  0  0  0  0  0  0  0  0
    0.0000   -5.5425    0.0000 C   0  0  0  0  0  0  0  0  0  0  0  0
    0.8000   -6.9282    0.0000 H   0  0  0  0  0  0  0  0  0  0  0  0
    1.6000   -5.5425    0.0000 H   0  0  0  0  0  0  0  0  0  0  0  0
   -0.8000   -6.9282    0.0000 H   0  0  0  0  0  0  0  0  0  0  0  0
   -2.4000   -4.1569    0.0000 C   0  0  0  0  0  0  0  0  0  0  0  0
   -3.2000   -5.5425    0.0000 H   0  0  0  0  0  0  0  0  0  0  0  0
   -3.2000   -2.7712    0.0000 C   0  0  0  0  0  0  0  0  0  0  0  0
   -4.8000   -2.7712    0.0000 O   0  0  0  0  0  0  0  0  0  0  0  0
   -5.6000   -1.3856    0.0000 P   0  0  0  0  0  0  0  0  0  0  0  0
   -4.8000   -0.0001    0.0000 S   0  0  0  0  0  0  0  0  0  0  0  0
   -7.2000   -1.3856    0.0000 O   0  0  0  0  0  0  0  0  0  0  0  0
   -8.0000   -2.7712    0.0000 C   0  0  0  0  0  0  0  0  0  0  0  0
   -8.8000   -4.1569    0.0000 H   0  0  0  0  0  0  0  0  0  0  0  0
   -9.6000   -2.7712    0.0000 H   0  0  0  0  0  0  0  0  0  0  0  0
   -7.2000   -4.1569    0.0000 H   0  0  0  0  0  0  0  0  0  0  0  0
   -6.4000   -0.0001    0.0000 O   0  0  0  0  0  0  0  0  0  0  0  0
   -8.0000   -0.0001    0.0000 C   0  0  0  0  0  0  0  0  0  0  0  0
   -8.8000    1.3856    0.0000 H   0  0  0  0  0  0  0  0  0  0  0  0
   -9.6000   -0.0001    0.0000 H   0  0  0  0  0  0  0  0  0  0  0  0
   -7.2000    1.3856    0.0000 H   0  0  0  0  0  0  0  0  0  0  0  0
  1  2  1  0  0  0  0
  2  3  1  0  0  0  0
  3  4  1  0  0  0  0
  4  5  1  0  0  0  0
  4  6  1  0  0  0  0
  4  7  1  0  0  0  0
  7  8  1  0  0  0  0
  7  9  1  0  0  0  0
  7 10  1  0  0  0  0
  3 11  1  0  0  0  0
 11 12  1  0  0  0  0
 11 13  1  0  0  0  0
 11 14  1  0  0  0  0
 14 15  1  0  0  0  0
 14 16  1  0  0  0  0
 14 17  1  0  0  0  0
  2 18  2  0  0  0  0
 18 19  1  0  0  0  0
 19 20  1  0  0  0  0
 20 21  1  0  0  0  0
 20 22  1  0  0  0  0
 20 23  1  0  0  0  0
 19 24  2  0  0  0  0
 24 25  1  0  0  0  0
 24 26  1  0  0  0  0
 26  1  2  0  0  0  0
 26 27  1  0  0  0  0
 27 28  1  0  0  0  0
 28 29  2  0  0  0  0
 28 30  1  0  0  0  0
 30 31  1  0  0  0  0
 31 32  1  0  0  0  0
 31 33  1  0  0  0  0
 31 34  1  0  0  0  0
 28 35  1  0  0  0  0
 35 36  1  0  0  0  0
 36 37  1  0  0  0  0
 36 38  1  0  0  0  0
 36 39  1  0  0  0  0
M  END
> <ChemID>
102601

> <source_casrn>
29232-93-7

> <CAS>
29232-93-7

> <SMILES>
Cc1cc([n]c([n]1)N(CC)CC)OP(=S)(OC)OC

> <NAME>
PIRIMIPHOS-METHYL

> <preferred_name>
Pirimiphos-methyl

> <iupac>
O-[2-(diethylamino)-6-methylpyrimidin-4-yl] O,O-dimethyl phosphorothioate

> <MPID>
27033

> <dsstox_substance_id>
DTXSID0024266

> <Canonical_QSARr>
Cc1cc([n]c([n]1)N(CC)CC)OP(=S)(OC)OC

> <InChI_Code_QSARr>
InChI=1S/C11H20N3O3PS/c1-6-14(7-2)11-12-9(3)8-10(13-11)17-18(19,15-4)16-5/h8H,6-7H2,1-5H3

> <InChI Key_QSARr>
QHOQHJPRIBSPCY-UHFFFAOYSA-N

> <Salt_Solvent>
?

> <LogVP>
-4.8239

$$$$
102607
  -INDIGO-08031723152D

 22 24  0  0  0  0  0  0  0  0999 V2000
    0.0001   -0.0000    0.0000 C   0  0  0  0  0  0  0  0  0  0  0  0
    1.3857    0.8000    0.0000 O   0  0  0  0  0  0  0  0  0  0  0  0
    2.7712   -0.0000    0.0000 C   0  0  0  0  0  0  0  0  0  0  0  0
    4.1569    0.8000    0.0000 C   0  0  0  0  0  0  0  0  0  0  0  0
    4.1569    2.4000    0.0000 H   0  0  0  0  0  0  0  0  0  0  0  0
    5.5425   -0.0000    0.0000 C   0  0  0  0  0  0  0  0  0  0  0  0
    6.9282    0.8000    0.0000 H   0  0  0  0  0  0  0  0  0  0  0  0
    5.5425   -1.6000    0.0000 C   0  0  0  0  0  0  0  0  0  0  0  0
    6.9282   -2.4000    0.0000 H   0  0  0  0  0  0  0  0  0  0  0  0
    4.1569   -2.4000    0.0000 C   0  0  0  0  0  0  0  0  0  0  0  0
    4.1569   -4.0000    0.0000 H   0  0  0  0  0  0  0  0  0  0  0  0
    2.7712   -1.6000    0.0000 C   0  0  0  0  0  0  0  0  0  0  0  0
    1.3857   -2.4000    0.0000 O   0  0  0  0  0  0  0  0  0  0  0  0
    0.0001   -1.6000    0.0000 C   0  0  0  0  0  0  0  0  0  0  0  0
   -1.3856   -2.4000    0.0000 C   0  0  0  0  0  0  0  0  0  0  0  0
   -1.3856   -4.0000    0.0000 Cl  0  0  0  0  0  0  0  0  0  0  0  0
   -2.7713   -1.6000    0.0000 C   0  0  0  0  0  0  0  0  0  0  0  0
   -4.1569   -2.4000    0.0000 Cl  0  0  0  0  0  0  0  0  0  0  0  0
   -2.7713   -0.0000    0.0000 C   0  0  0  0  0  0  0  0  0  0  0  0
   -4.1569    0.8000    0.0000 Cl  0  0  0  0  0  0  0  0  0  0  0  0
   -1.3856    0.8000    0.0000 C   0  0  0  0  0  0  0  0  0  0  0  0
   -1.3856    2.4000    0.0000 Cl  0  0  0  0  0  0  0  0  0  0  0  0
  1  2  1  0  0  0  0
  2  3  1  0  0  0  0
  3  4  1  0  0  0  0
  4  5  1  0  0  0  0
  4  6  2  0  0  0  0
  6  7  1  0  0  0  0
  6  8  1  0  0  0  0
  8  9  1  0  0  0  0
  8 10  2  0  0  0  0
 10 11  1  0  0  0  0
 10 12  1  0  0  0  0
 12  3  2  0  0  0  0
 12 13  1  0  0  0  0
 13 14  1  0  0  0  0
 14  1  1  0  0  0  0
 14 15  2  0  0  0  0
 15 16  1  0  0  0  0
 15 17  1  0  0  0  0
 17 18  1  0  0  0  0
 17 19  2  0  0  0  0
 19 20  1  0  0  0  0
 19 21  1  0  0  0  0
 21  1  2  0  0  0  0
 21 22  1  0  0  0  0
M  END
> <ChemID>
102607

> <source_casrn>
30746-58-8

> <CAS>
30746-58-8

> <SMILES>
Clc1c2Oc3ccccc3Oc2c(Cl)c(Cl)c1Cl

> <NAME>
1,2,3,4-TETRACHLORODIBENZO-P-DIOXIN

> <preferred_name>
1,2,3,4-Tetrachlorodibenzo-p-dioxin

> <iupac>
1,2,3,4-tetrachlorooxanthrene

> <MPID>
27037

> <dsstox_substance_id>
DTXSID7074030

> <Canonical_QSARr>
Clc1c2Oc3ccccc3Oc2c(Cl)c(Cl)c1Cl

> <InChI_Code_QSARr>
InChI=1S/C12H4Cl4O2/c13-7-8(14)10(16)12-11(9(7)15)17-5-3-1-2-4-6(5)18-12/h1-4H

> <InChI Key_QSARr>
DJHHDLMTUOLVHY-UHFFFAOYSA-N

> <Salt_Solvent>
?

> <LogVP>
-7.3188

$$$$
102611
  -INDIGO-08031723152D

 36 36  0  0  0  0  0  0  0  0999 V2000
    2.7712    1.6000    0.0000 C   0  0  0  0  0  0  0  0  0  0  0  0
    3.3185    3.1035    0.0000 H   0  0  0  0  0  0  0  0  0  0  0  0
    2.7712   -0.0000    0.0000 C   0  0  0  0  0  0  0  0  0  0  0  0
    4.3469    0.2779    0.0000 H   0  0  0  0  0  0  0  0  0  0  0  0
    3.3185   -1.5035    0.0000 H   0  0  0  0  0  0  0  0  0  0  0  0
    1.3857   -0.8000    0.0000 C   0  0  0  0  0  0  0  0  0  0  0  0
    2.4141   -2.0257    0.0000 H   0  0  0  0  0  0  0  0  0  0  0  0
    0.3573   -2.0257    0.0000 H   0  0  0  0  0  0  0  0  0  0  0  0
   -0.0001   -0.0000    0.0000 C   0  0  0  0  0  0  0  0  0  0  0  0
   -0.5471   -1.5035    0.0000 H   0  0  0  0  0  0  0  0  0  0  0  0
   -1.5758    0.2779    0.0000 C   0  0  0  0  0  0  0  0  0  0  0  0
   -3.1514    0.5557    0.0000 C   0  0  0  0  0  0  0  0  0  0  0  0
   -4.7271    0.8335    0.0000 H   0  0  0  0  0  0  0  0  0  0  0  0
   -4.1798   -0.6700    0.0000 H   0  0  0  0  0  0  0  0  0  0  0  0
   -3.6987    2.0592    0.0000 H   0  0  0  0  0  0  0  0  0  0  0  0
   -1.8536   -1.2978    0.0000 C   0  0  0  0  0  0  0  0  0  0  0  0
   -2.1313   -2.8735    0.0000 H   0  0  0  0  0  0  0  0  0  0  0  0
   -0.6278   -2.3263    0.0000 H   0  0  0  0  0  0  0  0  0  0  0  0
   -3.3571   -1.8451    0.0000 H   0  0  0  0  0  0  0  0  0  0  0  0
   -1.2979    1.8536    0.0000 C   0  0  0  0  0  0  0  0  0  0  0  0
   -2.5235    2.8820    0.0000 H   0  0  0  0  0  0  0  0  0  0  0  0
   -2.8013    1.3063    0.0000 H   0  0  0  0  0  0  0  0  0  0  0  0
   -1.2979    3.4536    0.0000 H   0  0  0  0  0  0  0  0  0  0  0  0
   -0.0001    1.6000    0.0000 C   0  0  0  0  0  0  0  0  0  0  0  0
   -1.5035    1.0527    0.0000 H   0  0  0  0  0  0  0  0  0  0  0  0
   -0.5471    3.1035    0.0000 H   0  0  0  0  0  0  0  0  0  0  0  0
    1.3857    2.4000    0.0000 C   0  0  0  0  0  0  0  0  0  0  0  0
    0.3573    3.6257    0.0000 H   0  0  0  0  0  0  0  0  0  0  0  0
    2.4141    3.6257    0.0000 H   0  0  0  0  0  0  0  0  0  0  0  0
    4.3469    1.3222    0.0000 O   0  0  0  0  0  0  0  0  0  0  0  0
    5.3755    2.5478    0.0000 C   0  0  0  0  0  0  0  0  0  0  0  0
    4.8282    4.0513    0.0000 O   0  0  0  0  0  0  0  0  0  0  0  0
    6.9512    2.2700    0.0000 C   0  0  0  0  0  0  0  0  0  0  0  0
    8.5268    1.9922    0.0000 H   0  0  0  0  0  0  0  0  0  0  0  0
    7.9796    3.4956    0.0000 H   0  0  0  0  0  0  0  0  0  0  0  0
    7.4984    0.7665    0.0000 H   0  0  0  0  0  0  0  0  0  0  0  0
  1  2  1  0  0  0  0
  1  3  1  0  0  0  0
  3  4  1  0  0  0  0
  3  5  1  0  0  0  0
  3  6  1  0  0  0  0
  6  7  1  0  0  0  0
  6  8  1  0  0  0  0
  6  9  1  0  0  0  0
  9 10  1  0  0  0  0
  9 11  1  0  0  0  0
 11 12  1  0  0  0  0
 12 13  1  0  0  0  0
 12 14  1  0  0  0  0
 12 15  1  0  0  0  0
 11 16  1  0  0  0  0
 16 17  1  0  0  0  0
 16 18  1  0  0  0  0
 16 19  1  0  0  0  0
 11 20  1  0  0  0  0
 20 21  1  0  0  0  0
 20 22  1  0  0  0  0
 20 23  1  0  0  0  0
  9 24  1  0  0  0  0
 24 25  1  0  0  0  0
 24 26  1  0  0  0  0
 24 27  1  0  0  0  0
 27  1  1  0  0  0  0
 27 28  1  0  0  0  0
 27 29  1  0  0  0  0
  1 30  1  0  0  0  0
 30 31  1  0  0  0  0
 31 32  2  0  0  0  0
 31 33  1  0  0  0  0
 33 34  1  0  0  0  0
 33 35  1  0  0  0  0
 33 36  1  0  0  0  0
M  END
> <ChemID>
102611

> <source_casrn>
32210-23-4

> <CAS>
32210-23-4

> <SMILES>
CC(=O)OC1CCC(CC1)C(C)(C)C

> <NAME>
Cyclohexanol, 4-(1,1-dimethylethyl)-, acetate

> <preferred_name>
4-tert-Butylcyclohexyl acetate

> <iupac>
C12H22O2

> <MPID>
27041

> <dsstox_substance_id>
DTXSID1027974

> <Canonical_QSARr>
CC(=O)OC1CCC(CC1)C(C)(C)C

> <InChI_Code_QSARr>
InChI=1S/C12H22O2/c1-9(13)14-11-7-5-10(6-8-11)12(2,3)4/h10-11H,5-8H2,1-4H3

> <InChI Key_QSARr>
MBZRJSQZCBXRGK-UHFFFAOYSA-N

> <Salt_Solvent>
?

> <LogVP>
-2.1249

$$$$
102615
  -INDIGO-08031723152D

 22 23  0  0  0  0  0  0  0  0999 V2000
    0.8001   -1.3856    0.0000 C   0  0  0  0  0  0  0  0  0  0  0  0
    2.4000   -1.3856    0.0000 C   0  0  0  0  0  0  0  0  0  0  0  0
    3.2000   -2.7713    0.0000 Cl  0  0  0  0  0  0  0  0  0  0  0  0
    3.2000   -0.0000    0.0000 C   0  0  0  0  0  0  0  0  0  0  0  0
    4.8000   -0.0000    0.0000 Cl  0  0  0  0  0  0  0  0  0  0  0  0
    2.4000    1.3856    0.0000 C   0  0  0  0  0  0  0  0  0  0  0  0
    3.2000    2.7713    0.0000 H   0  0  0  0  0  0  0  0  0  0  0  0
    0.8001    1.3856    0.0000 C   0  0  0  0  0  0  0  0  0  0  0  0
    0.0001    2.7713    0.0000 H   0  0  0  0  0  0  0  0  0  0  0  0
    0.0001   -0.0000    0.0000 C   0  0  0  0  0  0  0  0  0  0  0  0
   -1.6001    0.0000    0.0000 C   0  0  0  0  0  0  0  0  0  0  0  0
   -2.4001    1.3856    0.0000 C   0  0  0  0  0  0  0  0  0  0  0  0
   -1.6001    2.7713    0.0000 H   0  0  0  0  0  0  0  0  0  0  0  0
   -4.0000    1.3856    0.0000 C   0  0  0  0  0  0  0  0  0  0  0  0
   -4.8000    2.7713    0.0000 Cl  0  0  0  0  0  0  0  0  0  0  0  0
   -4.8000    0.0000    0.0000 C   0  0  0  0  0  0  0  0  0  0  0  0
   -6.4000    0.0000    0.0000 Cl  0  0  0  0  0  0  0  0  0  0  0  0
   -4.0000   -1.3856    0.0000 C   0  0  0  0  0  0  0  0  0  0  0  0
   -4.8000   -2.7713    0.0000 H   0  0  0  0  0  0  0  0  0  0  0  0
   -2.4001   -1.3856    0.0000 C   0  0  0  0  0  0  0  0  0  0  0  0
   -1.6001   -2.7713    0.0000 H   0  0  0  0  0  0  0  0  0  0  0  0
    0.0001   -2.7713    0.0000 Cl  0  0  0  0  0  0  0  0  0  0  0  0
  1  2  1  0  0  0  0
  2  3  1  0  0  0  0
  2  4  2  0  0  0  0
  4  5  1  0  0  0  0
  4  6  1  0  0  0  0
  6  7  1  0  0  0  0
  6  8  2  0  0  0  0
  8  9  1  0  0  0  0
  8 10  1  0  0  0  0
 10  1  2  0  0  0  0
 10 11  1  0  0  0  0
 11 12  1  0  0  0  0
 12 13  1  0  0  0  0
 12 14  2  0  0  0  0
 14 15  1  0  0  0  0
 14 16  1  0  0  0  0
 16 17  1  0  0  0  0
 16 18  2  0  0  0  0
 18 19  1  0  0  0  0
 18 20  1  0  0  0  0
 20 11  2  0  0  0  0
 20 21  1  0  0  0  0
  1 22  1  0  0  0  0
M  END
> <ChemID>
102615

> <source_casrn>
32598-14-4

> <CAS>
32598-14-4

> <SMILES>
Clc1c(Cl)c(ccc1Cl)-c1cc(Cl)c(Cl)cc1

> <NAME>
2,3,3',4,4'-PENTACHLORO-1,1'-BIPHENYL

> <preferred_name>
2,3,3',4,4'-Pentachlorobiphenyl

> <iupac>
2,3,3',4,4'-pentachlorobiphenyl

> <MPID>
27045

> <dsstox_substance_id>
DTXSID8038306

> <Canonical_QSARr>
Clc1c(Cl)c(ccc1Cl)-c1cc(Cl)c(Cl)cc1

> <InChI_Code_QSARr>
InChI=1S/C12H5Cl5/c13-8-3-1-6(5-10(8)15)7-2-4-9(14)12(17)11(7)16/h1-5H

> <InChI Key_QSARr>
WIDHRBRBACOVOY-UHFFFAOYSA-N

> <Salt_Solvent>
?

> <LogVP>
-5.185

$$$$
102619
  -INDIGO-08031723152D

 45 46  0  0  0  0  0  0  0  0999 V2000
   -1.3857   -2.4000    0.0000 N   0  0  0  0  0  0  0  0  0  0  0  0
   -1.3857   -4.0000    0.0000 C   0  0  0  0  0  0  0  0  0  0  0  0
   -0.0001   -4.7999    0.0000 H   0  0  0  0  0  0  0  0  0  0  0  0
   -2.7713   -4.7999    0.0000 N   0  0  0  0  0  0  0  0  0  0  0  0
   -4.1569   -4.0000    0.0000 C   0  0  0  0  0  0  0  0  0  0  0  0
   -4.1569   -2.4000    0.0000 H   0  0  0  0  0  0  0  0  0  0  0  0
   -5.5425   -4.7999    0.0000 N   0  0  0  0  0  0  0  0  0  0  0  0
   -6.9281   -4.0000    0.0000 C   0  0  0  0  0  0  0  0  0  0  0  0
   -8.3140   -4.7999    0.0000 C   0  0  0  0  0  0  0  0  0  0  0  0
   -8.3140   -6.4001    0.0000 C   0  0  0  0  0  0  0  0  0  0  0  0
   -8.3140   -8.0000    0.0000 H   0  0  0  0  0  0  0  0  0  0  0  0
   -9.6996   -7.2000    0.0000 H   0  0  0  0  0  0  0  0  0  0  0  0
   -6.9281   -7.2000    0.0000 H   0  0  0  0  0  0  0  0  0  0  0  0
   -9.6996   -4.0000    0.0000 C   0  0  0  0  0  0  0  0  0  0  0  0
  -11.0852   -4.7999    0.0000 H   0  0  0  0  0  0  0  0  0  0  0  0
   -9.6996   -2.4000    0.0000 C   0  0  0  0  0  0  0  0  0  0  0  0
  -11.0852   -1.6000    0.0000 C   0  0  0  0  0  0  0  0  0  0  0  0
  -12.4708   -0.8001    0.0000 H   0  0  0  0  0  0  0  0  0  0  0  0
  -12.4708   -2.4000    0.0000 H   0  0  0  0  0  0  0  0  0  0  0  0
  -11.0852    0.0001    0.0000 H   0  0  0  0  0  0  0  0  0  0  0  0
   -8.3140   -1.6000    0.0000 C   0  0  0  0  0  0  0  0  0  0  0  0
   -8.3140    0.0001    0.0000 H   0  0  0  0  0  0  0  0  0  0  0  0
   -6.9281   -2.4000    0.0000 C   0  0  0  0  0  0  0  0  0  0  0  0
   -5.5425   -1.6000    0.0000 H   0  0  0  0  0  0  0  0  0  0  0  0
   -2.7713   -6.4001    0.0000 C   0  0  0  0  0  0  0  0  0  0  0  0
   -2.7713   -8.0000    0.0000 H   0  0  0  0  0  0  0  0  0  0  0  0
   -4.1569   -7.2000    0.0000 H   0  0  0  0  0  0  0  0  0  0  0  0
   -1.3857   -7.2000    0.0000 H   0  0  0  0  0  0  0  0  0  0  0  0
   -0.0001   -1.6000    0.0000 C   0  0  0  0  0  0  0  0  0  0  0  0
   -0.0001    0.0001    0.0000 C   0  0  0  0  0  0  0  0  0  0  0  0
   -1.3857    0.8000    0.0000 C   0  0  0  0  0  0  0  0  0  0  0  0
   -2.7713    1.6000    0.0000 H   0  0  0  0  0  0  0  0  0  0  0  0
   -1.3857    2.4000    0.0000 H   0  0  0  0  0  0  0  0  0  0  0  0
   -2.7713    0.0001    0.0000 H   0  0  0  0  0  0  0  0  0  0  0  0
    1.3858    0.8000    0.0000 C   0  0  0  0  0  0  0  0  0  0  0  0
    1.3858    2.4000    0.0000 H   0  0  0  0  0  0  0  0  0  0  0  0
    2.7714    0.0001    0.0000 C   0  0  0  0  0  0  0  0  0  0  0  0
    4.1570    0.8000    0.0000 C   0  0  0  0  0  0  0  0  0  0  0  0
    5.5426    1.6000    0.0000 H   0  0  0  0  0  0  0  0  0  0  0  0
    5.5426    0.0001    0.0000 H   0  0  0  0  0  0  0  0  0  0  0  0
    4.1570    2.4000    0.0000 H   0  0  0  0  0  0  0  0  0  0  0  0
    2.7714   -1.6000    0.0000 C   0  0  0  0  0  0  0  0  0  0  0  0
    4.1570   -2.4000    0.0000 H   0  0  0  0  0  0  0  0  0  0  0  0
    1.3858   -2.4000    0.0000 C   0  0  0  0  0  0  0  0  0  0  0  0
    1.3858   -4.0000    0.0000 H   0  0  0  0  0  0  0  0  0  0  0  0
  1  2  2  0  0  0  0
  2  3  1  0  0  0  0
  2  4  1  0  0  0  0
  4  5  1  0  0  0  0
  5  6  1  0  0  0  0
  5  7  2  0  0  0  0
  7  8  1  0  0  0  0
  8  9  1  0  0  0  0
  9 10  1  0  0  0  0
 10 11  1  0  0  0  0
 10 12  1  0  0  0  0
 10 13  1  0  0  0  0
  9 14  2  0  0  0  0
 14 15  1  0  0  0  0
 14 16  1  0  0  0  0
 16 17  1  0  0  0  0
 17 18  1  0  0  0  0
 17 19  1  0  0  0  0
 17 20  1  0  0  0  0
 16 21  2  0  0  0  0
 21 22  1  0  0  0  0
 21 23  1  0  0  0  0
 23  8  2  0  0  0  0
 23 24  1  0  0  0  0
  4 25  1  0  0  0  0
 25 26  1  0  0  0  0
 25 27  1  0  0  0  0
 25 28  1  0  0  0  0
  1 29  1  0  0  0  0
 29 30  1  0  0  0  0
 30 31  1  0  0  0  0
 31 32  1  0  0  0  0
 31 33  1  0  0  0  0
 31 34  1  0  0  0  0
 30 35  2  0  0  0  0
 35 36  1  0  0  0  0
 35 37  1  0  0  0  0
 37 38  1  0  0  0  0
 38 39  1  0  0  0  0
 38 40  1  0  0  0  0
 38 41  1  0  0  0  0
 37 42  2  0  0  0  0
 42 43  1  0  0  0  0
 42 44  1  0  0  0  0
 44 29  2  0  0  0  0
 44 45  1  0  0  0  0
M  END
> <ChemID>
102619

> <source_casrn>
33089-61-1

> <CAS>
33089-61-1

> <SMILES>
CN(/C=N/c1ccc(C)cc1C)/C=N/c1ccc(C)cc1C

> <NAME>
AMITRAZ

> <preferred_name>
Amitraz

> <iupac>
N'-(2,4-dimethylphenyl)-N-{(E)-[(2,4-dimethylphenyl)imino]methyl}-N-methylimidoformamide

> <MPID>
27049

> <dsstox_substance_id>
DTXSID5023871

> <Canonical_QSARr>
CN(C=Nc1ccc(C)cc1C)C=Nc1ccc(C)cc1C

> <InChI_Code_QSARr>
InChI=1S/C19H23N3/c1-14-6-8-18(16(3)10-14)20-12-22(5)13-21-19-9-7-15(2)11-17(19)4/h6-13H,1-5H3/b20-12+,21-13+

> <InChI Key_QSARr>
QXAITBQSYVNQDR-ZIOPAAQOSA-N

> <Salt_Solvent>
?

> <LogVP>
-5.699

$$$$
102625
  -INDIGO-08031723152D

 42 42  0  0  0  0  0  0  0  0999 V2000
    4.1570   -0.8000    0.0000 C   0  0  0  0  0  0  0  0  0  0  0  0
    5.3825    0.2285    0.0000 N   0  0  0  0  0  0  0  0  0  0  0  0
    5.1049    1.8042    0.0000 O   0  0  0  0  0  0  0  0  0  0  0  0
    6.8861   -0.3188    0.0000 O   0  0  0  0  0  0  0  0  0  0  0  0
    4.1570   -2.3999    0.0000 C   0  0  0  0  0  0  0  0  0  0  0  0
    5.5425   -3.2000    0.0000 N   0  0  0  0  0  0  0  0  0  0  0  0
    5.5425   -4.8000    0.0000 H   0  0  0  0  0  0  0  0  0  0  0  0
    6.9282   -2.3999    0.0000 C   0  0  0  0  0  0  0  0  0  0  0  0
    5.8998   -1.1743    0.0000 H   0  0  0  0  0  0  0  0  0  0  0  0
    7.9566   -3.6256    0.0000 C   0  0  0  0  0  0  0  0  0  0  0  0
    6.8757   -4.8053    0.0000 H   0  0  0  0  0  0  0  0  0  0  0  0
    8.0265   -5.2241    0.0000 H   0  0  0  0  0  0  0  0  0  0  0  0
    9.5324   -3.3479    0.0000 C   0  0  0  0  0  0  0  0  0  0  0  0
   10.5608   -4.5736    0.0000 H   0  0  0  0  0  0  0  0  0  0  0  0
   11.1080   -3.0700    0.0000 H   0  0  0  0  0  0  0  0  0  0  0  0
    8.9850   -4.8513    0.0000 H   0  0  0  0  0  0  0  0  0  0  0  0
    8.1540   -1.3716    0.0000 C   0  0  0  0  0  0  0  0  0  0  0  0
    9.3795   -0.3430    0.0000 H   0  0  0  0  0  0  0  0  0  0  0  0
    9.6574   -1.9187    0.0000 H   0  0  0  0  0  0  0  0  0  0  0  0
    7.8761    0.2041    0.0000 H   0  0  0  0  0  0  0  0  0  0  0  0
    2.7712   -3.2000    0.0000 C   0  0  0  0  0  0  0  0  0  0  0  0
    2.7712   -4.8000    0.0000 N   0  0  0  0  0  0  0  0  0  0  0  0
    1.3857   -5.6000    0.0000 O   0  0  0  0  0  0  0  0  0  0  0  0
    4.1570   -5.6000    0.0000 O   0  0  0  0  0  0  0  0  0  0  0  0
    1.3857   -2.3999    0.0000 C   0  0  0  0  0  0  0  0  0  0  0  0
    0.0000   -3.2000    0.0000 H   0  0  0  0  0  0  0  0  0  0  0  0
    1.3857   -0.8000    0.0000 C   0  0  0  0  0  0  0  0  0  0  0  0
    0.0000   -0.0000    0.0000 C   0  0  0  0  0  0  0  0  0  0  0  0
   -1.3857    0.8000    0.0000 C   0  0  0  0  0  0  0  0  0  0  0  0
   -2.7713    1.6000    0.0000 H   0  0  0  0  0  0  0  0  0  0  0  0
   -1.6634    2.3757    0.0000 H   0  0  0  0  0  0  0  0  0  0  0  0
   -2.8891    0.2528    0.0000 H   0  0  0  0  0  0  0  0  0  0  0  0
    0.8001    1.3856    0.0000 C   0  0  0  0  0  0  0  0  0  0  0  0
    1.8285    2.6113    0.0000 H   0  0  0  0  0  0  0  0  0  0  0  0
    0.2527    2.8891    0.0000 H   0  0  0  0  0  0  0  0  0  0  0  0
   -0.7757    1.6635    0.0000 H   0  0  0  0  0  0  0  0  0  0  0  0
   -0.8001   -1.3857    0.0000 C   0  0  0  0  0  0  0  0  0  0  0  0
   -1.3473   -2.8892    0.0000 H   0  0  0  0  0  0  0  0  0  0  0  0
   -2.3757   -1.6635    0.0000 H   0  0  0  0  0  0  0  0  0  0  0  0
   -1.8285   -0.1600    0.0000 H   0  0  0  0  0  0  0  0  0  0  0  0
    2.7712   -0.0000    0.0000 C   0  0  0  0  0  0  0  0  0  0  0  0
    2.7712    1.6000    0.0000 H   0  0  0  0  0  0  0  0  0  0  0  0
  1  2  1  0  0  0  0
  2  3  1  0  0  0  0
  2  4  2  0  0  0  0
  1  5  1  0  0  0  0
  5  6  1  0  0  0  0
  6  7  1  0  0  0  0
  6  8  1  0  0  0  0
  8  9  1  0  0  0  0
  8 10  1  0  0  0  0
 10 11  1  0  0  0  0
 10 12  1  0  0  0  0
 10 13  1  0  0  0  0
 13 14  1  0  0  0  0
 13 15  1  0  0  0  0
 13 16  1  0  0  0  0
  8 17  1  0  0  0  0
 17 18  1  0  0  0  0
 17 19  1  0  0  0  0
 17 20  1  0  0  0  0
  5 21  2  0  0  0  0
 21 22  1  0  0  0  0
 22 23  1  0  0  0  0
 22 24  2  0  0  0  0
 21 25  1  0  0  0  0
 25 26  1  0  0  0  0
 25 27  2  0  0  0  0
 27 28  1  0  0  0  0
 28 29  1  0  0  0  0
 29 30  1  0  0  0  0
 29 31  1  0  0  0  0
 29 32  1  0  0  0  0
 28 33  1  0  0  0  0
 33 34  1  0  0  0  0
 33 35  1  0  0  0  0
 33 36  1  0  0  0  0
 28 37  1  0  0  0  0
 37 38  1  0  0  0  0
 37 39  1  0  0  0  0
 37 40  1  0  0  0  0
 27 41  1  0  0  0  0
 41  1  2  0  0  0  0
 41 42  1  0  0  0  0
M  CHG  4   2   1   3  -1  22   1  23  -1
M  END
> <ChemID>
102625

> <source_casrn>
33629-47-9

> <CAS>
33629-47-9

> <SMILES>
CCC(C)Nc1c(cc(cc1[N+]([O-])=O)C(C)(C)C)[N+]([O-])=O

> <NAME>
BUTRALIN

> <preferred_name>
Butralin

> <iupac>
N-(butan-2-yl)-4-tert-butyl-2,6-dinitroaniline

> <MPID>
27054

> <dsstox_substance_id>
DTXSID3032337

> <Canonical_QSARr>
CCC(C)Nc1c(cc(cc1[N+]([O-])=O)C(C)(C)C)[N+]([O-])=O

> <InChI_Code_QSARr>
InChI=1S/C14H21N3O4/c1-6-9(2)15-13-11(16(18)19)7-10(14(3,4)5)8-12(13)17(20)21/h7-9,15H,6H2,1-5H3

> <InChI Key_QSARr>
SPNQRCTZKIBOAX-UHFFFAOYSA-N

> <Salt_Solvent>
?

> <LogVP>
-4.8962

$$$$
102630
  -INDIGO-08031723152D

 35 34  0  0  0  0  0  0  0  0999 V2000
    4.1570    0.8000    0.0000 C   0  0  0  0  0  0  0  0  0  0  0  0
    4.7691    2.2782    0.0000 H   0  0  0  0  0  0  0  0  0  0  0  0
    3.5445    2.2782    0.0000 H   0  0  0  0  0  0  0  0  0  0  0  0
    2.7713    0.0000    0.0000 C   0  0  0  0  0  0  0  0  0  0  0  0
    2.1589   -1.4782    0.0000 H   0  0  0  0  0  0  0  0  0  0  0  0
    3.3835   -1.4782    0.0000 H   0  0  0  0  0  0  0  0  0  0  0  0
    1.3857    0.8000    0.0000 C   0  0  0  0  0  0  0  0  0  0  0  0
    1.9979    2.2782    0.0000 H   0  0  0  0  0  0  0  0  0  0  0  0
    0.7733    2.2782    0.0000 H   0  0  0  0  0  0  0  0  0  0  0  0
    0.0001    0.0000    0.0000 C   0  0  0  0  0  0  0  0  0  0  0  0
   -0.6123   -1.4782    0.0000 H   0  0  0  0  0  0  0  0  0  0  0  0
    0.6123   -1.4782    0.0000 H   0  0  0  0  0  0  0  0  0  0  0  0
   -1.3855    0.8000    0.0000 C   0  0  0  0  0  0  0  0  0  0  0  0
   -0.7734    2.2782    0.0000 H   0  0  0  0  0  0  0  0  0  0  0  0
   -1.9980    2.2782    0.0000 H   0  0  0  0  0  0  0  0  0  0  0  0
   -2.7711    0.0000    0.0000 C   0  0  0  0  0  0  0  0  0  0  0  0
   -3.3836   -1.4782    0.0000 H   0  0  0  0  0  0  0  0  0  0  0  0
   -2.1590   -1.4782    0.0000 H   0  0  0  0  0  0  0  0  0  0  0  0
   -4.1570    0.8000    0.0000 C   0  0  0  0  0  0  0  0  0  0  0  0
   -3.5446    2.2782    0.0000 H   0  0  0  0  0  0  0  0  0  0  0  0
   -4.7692    2.2782    0.0000 H   0  0  0  0  0  0  0  0  0  0  0  0
   -5.5427    0.0000    0.0000 C   0  0  0  0  0  0  0  0  0  0  0  0
   -5.5427   -1.6000    0.0000 H   0  0  0  0  0  0  0  0  0  0  0  0
   -6.9283    0.8000    0.0000 C   0  0  0  0  0  0  0  0  0  0  0  0
   -6.9283    2.4000    0.0000 H   0  0  0  0  0  0  0  0  0  0  0  0
   -8.3139    0.0000    0.0000 C   0  0  0  0  0  0  0  0  0  0  0  0
   -8.3139   -1.6000    0.0000 H   0  0  0  0  0  0  0  0  0  0  0  0
   -9.6995    0.8000    0.0000 C   0  0  0  0  0  0  0  0  0  0  0  0
   -9.6995    2.4000    0.0000 H   0  0  0  0  0  0  0  0  0  0  0  0
  -11.0851    0.0000    0.0000 C   0  0  0  0  0  0  0  0  0  0  0  0
  -12.4708   -0.8000    0.0000 H   0  0  0  0  0  0  0  0  0  0  0  0
  -12.4708    0.8000    0.0000 H   0  0  0  0  0  0  0  0  0  0  0  0
  -11.0851   -1.6000    0.0000 H   0  0  0  0  0  0  0  0  0  0  0  0
    5.5426    0.0000    0.0000 O   0  0  0  0  0  0  0  0  0  0  0  0
    6.9282    0.8000    0.0000 H   0  0  0  0  0  0  0  0  0  0  0  0
  1  2  1  0  0  0  0
  1  3  1  0  0  0  0
  1  4  1  0  0  0  0
  4  5  1  0  0  0  0
  4  6  1  0  0  0  0
  4  7  1  0  0  0  0
  7  8  1  0  0  0  0
  7  9  1  0  0  0  0
  7 10  1  0  0  0  0
 10 11  1  0  0  0  0
 10 12  1  0  0  0  0
 10 13  1  0  0  0  0
 13 14  1  0  0  0  0
 13 15  1  0  0  0  0
 13 16  1  0  0  0  0
 16 17  1  0  0  0  0
 16 18  1  0  0  0  0
 16 19  1  0  0  0  0
 19 20  1  0  0  0  0
 19 21  1  0  0  0  0
 19 22  1  0  0  0  0
 22 23  1  0  0  0  0
 22 24  2  0  0  0  0
 24 25  1  0  0  0  0
 24 26  1  0  0  0  0
 26 27  1  0  0  0  0
 26 28  2  0  0  0  0
 28 29  1  0  0  0  0
 28 30  1  0  0  0  0
 30 31  1  0  0  0  0
 30 32  1  0  0  0  0
 30 33  1  0  0  0  0
  1 34  1  0  0  0  0
 34 35  1  0  0  0  0
M  END
> <ChemID>
102630

> <source_casrn>
33956-49-9

> <CAS>
33956-49-9

> <SMILES>
C/C=C/C=C/CCCCCCCO

> <NAME>
CODLEMONE

> <preferred_name>
Codlelure

> <iupac>
(8E,10E)-dodeca-8,10-dien-1-ol

> <MPID>
27058

> <dsstox_substance_id>
DTXSID1035288

> <Canonical_QSARr>
CC=CC=CCCCCCCCO

> <InChI_Code_QSARr>
InChI=1S/C12H22O/c1-2-3-4-5-6-7-8-9-10-11-12-13/h2-5,13H,6-12H2,1H3/b3-2+,5-4+

> <InChI Key_QSARr>
CSWBSLXBXRFNST-MQQKCMAXSA-N

> <Salt_Solvent>
?

> <LogVP>
-3.2857

$$$$
102634
  -INDIGO-08031723152D

 15 14  0  0  0  0  0  0  0  0999 V2000
    1.3856    0.8000    0.0000 S   0  0  0  0  0  0  0  0  0  0  0  0
    2.7712    0.0000    0.0000 S   0  0  0  0  0  0  0  0  0  0  0  0
    4.1569    0.8000    0.0000 S   0  0  0  0  0  0  0  0  0  0  0  0
    5.5425    0.0000    0.0000 C   0  0  0  0  0  0  0  0  0  0  0  0
    6.9282   -0.8000    0.0000 H   0  0  0  0  0  0  0  0  0  0  0  0
    6.9282    0.8000    0.0000 H   0  0  0  0  0  0  0  0  0  0  0  0
    5.5425   -1.6000    0.0000 H   0  0  0  0  0  0  0  0  0  0  0  0
    0.0001    0.0000    0.0000 C   0  0  0  0  0  0  0  0  0  0  0  0
   -0.6123   -1.4782    0.0000 H   0  0  0  0  0  0  0  0  0  0  0  0
    0.6122   -1.4782    0.0000 H   0  0  0  0  0  0  0  0  0  0  0  0
   -1.3856    0.8000    0.0000 C   0  0  0  0  0  0  0  0  0  0  0  0
   -1.3856    2.4000    0.0000 H   0  0  0  0  0  0  0  0  0  0  0  0
   -2.7713    0.0000    0.0000 C   0  0  0  0  0  0  0  0  0  0  0  0
   -4.1569    0.8000    0.0000 H   0  0  0  0  0  0  0  0  0  0  0  0
   -2.7713   -1.6000    0.0000 H   0  0  0  0  0  0  0  0  0  0  0  0
  1  2  1  0  0  0  0
  2  3  1  0  0  0  0
  3  4  1  0  0  0  0
  4  5  1  0  0  0  0
  4  6  1  0  0  0  0
  4  7  1  0  0  0  0
  1  8  1  0  0  0  0
  8  9  1  0  0  0  0
  8 10  1  0  0  0  0
  8 11  1  0  0  0  0
 11 12  1  0  0  0  0
 11 13  2  0  0  0  0
 13 14  1  0  0  0  0
 13 15  1  0  0  0  0
M  END
> <ChemID>
102634

> <source_casrn>
34135-85-8

> <CAS>
34135-85-8

> <SMILES>
CSSSCC=C

> <NAME>
Methyl Allyl Trisulfide

> <preferred_name>
Methyl allyl trisulfide

> <iupac>
3-methylsulfanyldisulfanylprop-1-ene

> <MPID>
27062

> <dsstox_substance_id>
DTXSID30187717

> <Canonical_QSARr>
CSSSCC=C

> <InChI_Code_QSARr>
InChI=1S/C4H8S3/c1-3-4-6-7-5-2/h3H,1,4H2,2H3

> <InChI Key_QSARr>
JGMPRNFEEAJLAJ-UHFFFAOYSA-N

> <Salt_Solvent>
?

> <LogVP>
-1.301

$$$$
102645
  -INDIGO-08031723152D

 22 23  0  0  0  0  0  0  0  0999 V2000
   -0.0001    0.0000    0.0000 C   0  0  0  0  0  0  0  0  0  0  0  0
    1.6001   -0.0000    0.0000 C   0  0  0  0  0  0  0  0  0  0  0  0
    2.4001   -1.3856    0.0000 C   0  0  0  0  0  0  0  0  0  0  0  0
    1.6001   -2.7713    0.0000 H   0  0  0  0  0  0  0  0  0  0  0  0
    4.0000   -1.3856    0.0000 C   0  0  0  0  0  0  0  0  0  0  0  0
    4.8000   -2.7713    0.0000 H   0  0  0  0  0  0  0  0  0  0  0  0
    4.8000    0.0000    0.0000 C   0  0  0  0  0  0  0  0  0  0  0  0
    6.4000    0.0000    0.0000 H   0  0  0  0  0  0  0  0  0  0  0  0
    4.0000    1.3856    0.0000 C   0  0  0  0  0  0  0  0  0  0  0  0
    4.8000    2.7713    0.0000 H   0  0  0  0  0  0  0  0  0  0  0  0
    2.4001    1.3856    0.0000 C   0  0  0  0  0  0  0  0  0  0  0  0
    1.6001    2.7713    0.0000 H   0  0  0  0  0  0  0  0  0  0  0  0
   -0.8001    1.3856    0.0000 C   0  0  0  0  0  0  0  0  0  0  0  0
   -0.0001    2.7713    0.0000 Cl  0  0  0  0  0  0  0  0  0  0  0  0
   -2.4000    1.3856    0.0000 C   0  0  0  0  0  0  0  0  0  0  0  0
   -3.2000    2.7713    0.0000 H   0  0  0  0  0  0  0  0  0  0  0  0
   -3.2000    0.0000    0.0000 C   0  0  0  0  0  0  0  0  0  0  0  0
   -4.8000   -0.0000    0.0000 H   0  0  0  0  0  0  0  0  0  0  0  0
   -2.4000   -1.3856    0.0000 C   0  0  0  0  0  0  0  0  0  0  0  0
   -3.2000   -2.7713    0.0000 Cl  0  0  0  0  0  0  0  0  0  0  0  0
   -0.8001   -1.3856    0.0000 C   0  0  0  0  0  0  0  0  0  0  0  0
   -0.0001   -2.7713    0.0000 H   0  0  0  0  0  0  0  0  0  0  0  0
  1  2  1  0  0  0  0
  2  3  1  0  0  0  0
  3  4  1  0  0  0  0
  3  5  2  0  0  0  0
  5  6  1  0  0  0  0
  5  7  1  0  0  0  0
  7  8  1  0  0  0  0
  7  9  2  0  0  0  0
  9 10  1  0  0  0  0
  9 11  1  0  0  0  0
 11  2  2  0  0  0  0
 11 12  1  0  0  0  0
  1 13  1  0  0  0  0
 13 14  1  0  0  0  0
 13 15  2  0  0  0  0
 15 16  1  0  0  0  0
 15 17  1  0  0  0  0
 17 18  1  0  0  0  0
 17 19  2  0  0  0  0
 19 20  1  0  0  0  0
 19 21  1  0  0  0  0
 21  1  2  0  0  0  0
 21 22  1  0  0  0  0
M  END
> <ChemID>
102645

> <source_casrn>
34883-39-1

> <CAS>
34883-39-1

> <SMILES>
Clc1cc(-c2ccccc2)c(Cl)cc1

> <NAME>
2,5-DICHLOROBIPHENYL

> <preferred_name>
2,5-Dichlorobiphenyl

> <iupac>
1,4-dichloro-2-phenylbenzene

> <MPID>
27066

> <dsstox_substance_id>
DTXSID7073480

> <Canonical_QSARr>
Clc1cc(-c2ccccc2)c(Cl)cc1

> <InChI_Code_QSARr>
InChI=1S/C12H8Cl2/c13-10-6-7-12(14)11(8-10)9-4-2-1-3-5-9/h1-8H

> <InChI Key_QSARr>
KKQWHYGECTYFIA-UHFFFAOYSA-N

> <Salt_Solvent>
?

> <LogVP>
-2.8601

$$$$
102649
  -INDIGO-08031723152D

 22 23  0  0  0  0  0  0  0  0999 V2000
   -0.0001    0.0000    0.0000 C   0  0  0  0  0  0  0  0  0  0  0  0
    1.6001   -0.0000    0.0000 C   0  0  0  0  0  0  0  0  0  0  0  0
    2.4001   -1.3856    0.0000 C   0  0  0  0  0  0  0  0  0  0  0  0
    1.6001   -2.7713    0.0000 Cl  0  0  0  0  0  0  0  0  0  0  0  0
    4.0000   -1.3856    0.0000 C   0  0  0  0  0  0  0  0  0  0  0  0
    4.8000   -2.7713    0.0000 H   0  0  0  0  0  0  0  0  0  0  0  0
    4.8000    0.0000    0.0000 C   0  0  0  0  0  0  0  0  0  0  0  0
    6.4000    0.0000    0.0000 Cl  0  0  0  0  0  0  0  0  0  0  0  0
    4.0000    1.3856    0.0000 C   0  0  0  0  0  0  0  0  0  0  0  0
    4.8000    2.7713    0.0000 Cl  0  0  0  0  0  0  0  0  0  0  0  0
    2.4001    1.3856    0.0000 C   0  0  0  0  0  0  0  0  0  0  0  0
    1.6001    2.7713    0.0000 H   0  0  0  0  0  0  0  0  0  0  0  0
   -0.8001    1.3856    0.0000 C   0  0  0  0  0  0  0  0  0  0  0  0
   -0.0001    2.7713    0.0000 Cl  0  0  0  0  0  0  0  0  0  0  0  0
   -2.4000    1.3856    0.0000 C   0  0  0  0  0  0  0  0  0  0  0  0
   -3.2000    2.7713    0.0000 Cl  0  0  0  0  0  0  0  0  0  0  0  0
   -3.2000    0.0000    0.0000 C   0  0  0  0  0  0  0  0  0  0  0  0
   -4.8000   -0.0000    0.0000 Cl  0  0  0  0  0  0  0  0  0  0  0  0
   -2.4000   -1.3856    0.0000 C   0  0  0  0  0  0  0  0  0  0  0  0
   -3.2000   -2.7713    0.0000 Cl  0  0  0  0  0  0  0  0  0  0  0  0
   -0.8001   -1.3856    0.0000 C   0  0  0  0  0  0  0  0  0  0  0  0
   -0.0001   -2.7713    0.0000 H   0  0  0  0  0  0  0  0  0  0  0  0
  1  2  1  0  0  0  0
  2  3  1  0  0  0  0
  3  4  1  0  0  0  0
  3  5  2  0  0  0  0
  5  6  1  0  0  0  0
  5  7  1  0  0  0  0
  7  8  1  0  0  0  0
  7  9  2  0  0  0  0
  9 10  1  0  0  0  0
  9 11  1  0  0  0  0
 11  2  2  0  0  0  0
 11 12  1  0  0  0  0
  1 13  1  0  0  0  0
 13 14  1  0  0  0  0
 13 15  2  0  0  0  0
 15 16  1  0  0  0  0
 15 17  1  0  0  0  0
 17 18  1  0  0  0  0
 17 19  2  0  0  0  0
 19 20  1  0  0  0  0
 19 21  1  0  0  0  0
 21  1  2  0  0  0  0
 21 22  1  0  0  0  0
M  END
> <ChemID>
102649

> <source_casrn>
35065-29-3

> <CAS>
35065-29-3

> <SMILES>
Clc1cc(Cl)c(Cl)cc1-c1cc(Cl)c(Cl)c(Cl)c1Cl

> <NAME>
2,2',3,4,4',5,5'-HEPTACHLOROBIPHENYL

> <preferred_name>
2,2',3,4,4',5,5'-Heptachlorobiphenyl

> <iupac>
2,2',3,4,4',5,5'-heptachlorobiphenyl

> <MPID>
27070

> <dsstox_substance_id>
DTXSID6038299

> <Canonical_QSARr>
Clc1cc(Cl)c(Cl)cc1-c1cc(Cl)c(Cl)c(Cl)c1Cl

> <InChI_Code_QSARr>
InChI=1S/C12H3Cl7/c13-6-3-8(15)7(14)1-4(6)5-2-9(16)11(18)12(19)10(5)17/h1-3H

> <InChI Key_QSARr>
WBHQEUPUMONIKF-UHFFFAOYSA-N

> <Salt_Solvent>
?

> <LogVP>
-6.0101

$$$$
102654
  -INDIGO-08031723152D

 37 37  0  0  0  0  0  0  0  0999 V2000
    4.1569   -0.8000    0.0000 P   0  0  0  0  0  0  0  0  0  0  0  0
    4.1569    0.8000    0.0000 S   0  0  0  0  0  0  0  0  0  0  0  0
    5.5427    0.0000    0.0000 O   0  0  0  0  0  0  0  0  0  0  0  0
    6.9283   -0.8000    0.0000 C   0  0  0  0  0  0  0  0  0  0  0  0
    6.9283   -2.4000    0.0000 C   0  0  0  0  0  0  0  0  0  0  0  0
    5.5427   -3.2000    0.0000 H   0  0  0  0  0  0  0  0  0  0  0  0
    8.3138   -3.2000    0.0000 C   0  0  0  0  0  0  0  0  0  0  0  0
    8.3138   -4.8000    0.0000 H   0  0  0  0  0  0  0  0  0  0  0  0
    9.6994   -2.4000    0.0000 C   0  0  0  0  0  0  0  0  0  0  0  0
   11.0853   -3.2000    0.0000 S   0  0  0  0  0  0  0  0  0  0  0  0
   12.4708   -2.4000    0.0000 C   0  0  0  0  0  0  0  0  0  0  0  0
   13.8564   -3.2000    0.0000 H   0  0  0  0  0  0  0  0  0  0  0  0
   13.8564   -1.6000    0.0000 H   0  0  0  0  0  0  0  0  0  0  0  0
   12.4708   -4.0000    0.0000 H   0  0  0  0  0  0  0  0  0  0  0  0
    9.6994   -0.8000    0.0000 C   0  0  0  0  0  0  0  0  0  0  0  0
   11.0853    0.0000    0.0000 H   0  0  0  0  0  0  0  0  0  0  0  0
    8.3138    0.0000    0.0000 C   0  0  0  0  0  0  0  0  0  0  0  0
    8.3138    1.6000    0.0000 H   0  0  0  0  0  0  0  0  0  0  0  0
    2.7713    0.0000    0.0000 S   0  0  0  0  0  0  0  0  0  0  0  0
    1.3857   -0.8000    0.0000 C   0  0  0  0  0  0  0  0  0  0  0  0
    1.9979   -2.2782    0.0000 H   0  0  0  0  0  0  0  0  0  0  0  0
    0.7735   -2.2782    0.0000 H   0  0  0  0  0  0  0  0  0  0  0  0
    0.0001    0.0000    0.0000 C   0  0  0  0  0  0  0  0  0  0  0  0
   -0.6124    1.4782    0.0000 H   0  0  0  0  0  0  0  0  0  0  0  0
    0.6124    1.4782    0.0000 H   0  0  0  0  0  0  0  0  0  0  0  0
   -1.3857   -0.8000    0.0000 C   0  0  0  0  0  0  0  0  0  0  0  0
   -2.7713    0.0000    0.0000 H   0  0  0  0  0  0  0  0  0  0  0  0
   -2.7713   -1.6000    0.0000 H   0  0  0  0  0  0  0  0  0  0  0  0
   -1.3857    0.8000    0.0000 H   0  0  0  0  0  0  0  0  0  0  0  0
    2.7713   -1.6000    0.0000 O   0  0  0  0  0  0  0  0  0  0  0  0
    2.7713   -3.2000    0.0000 C   0  0  0  0  0  0  0  0  0  0  0  0
    4.3576   -3.4089    0.0000 H   0  0  0  0  0  0  0  0  0  0  0  0
    3.7453   -4.4694    0.0000 H   0  0  0  0  0  0  0  0  0  0  0  0
    1.3857   -4.0000    0.0000 C   0  0  0  0  0  0  0  0  0  0  0  0
    0.0001   -4.8000    0.0000 H   0  0  0  0  0  0  0  0  0  0  0  0
    1.3857   -5.6000    0.0000 H   0  0  0  0  0  0  0  0  0  0  0  0
    0.0001   -3.2000    0.0000 H   0  0  0  0  0  0  0  0  0  0  0  0
  1  2  2  0  0  0  0
  1  3  1  0  0  0  0
  3  4  1  0  0  0  0
  4  5  1  0  0  0  0
  5  6  1  0  0  0  0
  5  7  2  0  0  0  0
  7  8  1  0  0  0  0
  7  9  1  0  0  0  0
  9 10  1  0  0  0  0
 10 11  1  0  0  0  0
 11 12  1  0  0  0  0
 11 13  1  0  0  0  0
 11 14  1  0  0  0  0
  9 15  2  0  0  0  0
 15 16  1  0  0  0  0
 15 17  1  0  0  0  0
 17  4  2  0  0  0  0
 17 18  1  0  0  0  0
  1 19  1  0  0  0  0
 19 20  1  0  0  0  0
 20 21  1  0  0  0  0
 20 22  1  0  0  0  0
 20 23  1  0  0  0  0
 23 24  1  0  0  0  0
 23 25  1  0  0  0  0
 23 26  1  0  0  0  0
 26 27  1  0  0  0  0
 26 28  1  0  0  0  0
 26 29  1  0  0  0  0
  1 30  1  0  0  0  0
 30 31  1  0  0  0  0
 31 32  1  0  0  0  0
 31 33  1  0  0  0  0
 31 34  1  0  0  0  0
 34 35  1  0  0  0  0
 34 36  1  0  0  0  0
 34 37  1  0  0  0  0
M  END
> <ChemID>
102654

> <source_casrn>
35400-43-2

> <CAS>
35400-43-2

> <SMILES>
CSc1ccc(cc1)OP(=S)(OCC)SCCC

> <NAME>
SULPROFOS

> <preferred_name>
Sulprofos

> <iupac>
O-ethyl O-[4-(methylsulfanyl)phenyl] S-propyl phosphorodithioate

> <MPID>
27074

> <dsstox_substance_id>
DTXSID8032675

> <Canonical_QSARr>
CSc1ccc(cc1)OP(=S)(OCC)SCCC

> <InChI_Code_QSARr>
InChI=1S/C12H19O2PS3/c1-4-10-18-15(16,13-5-2)14-11-6-8-12(17-3)9-7-11/h6-9H,4-5,10H2,1-3H3

> <InChI Key_QSARr>
JXHJNEJVUNHLKO-UHFFFAOYSA-N

> <Salt_Solvent>
?

> <LogVP>
-5.9208

$$$$
102658
  -INDIGO-08031723152D

 22 24  0  0  0  0  0  0  0  0999 V2000
    0.0001   -0.0000    0.0000 C   0  0  0  0  0  0  0  0  0  0  0  0
   -1.3856    0.8000    0.0000 C   0  0  0  0  0  0  0  0  0  0  0  0
   -1.3856    2.4000    0.0000 Cl  0  0  0  0  0  0  0  0  0  0  0  0
   -2.7713   -0.0000    0.0000 C   0  0  0  0  0  0  0  0  0  0  0  0
   -4.1569    0.8000    0.0000 Cl  0  0  0  0  0  0  0  0  0  0  0  0
   -2.7713   -1.6000    0.0000 C   0  0  0  0  0  0  0  0  0  0  0  0
   -4.1569   -2.4000    0.0000 Cl  0  0  0  0  0  0  0  0  0  0  0  0
   -1.3856   -2.4000    0.0000 C   0  0  0  0  0  0  0  0  0  0  0  0
   -1.3856   -4.0000    0.0000 H   0  0  0  0  0  0  0  0  0  0  0  0
    0.0001   -1.6000    0.0000 C   0  0  0  0  0  0  0  0  0  0  0  0
    1.3857   -2.4000    0.0000 O   0  0  0  0  0  0  0  0  0  0  0  0
    2.7712   -1.6000    0.0000 C   0  0  0  0  0  0  0  0  0  0  0  0
    2.7712   -0.0000    0.0000 C   0  0  0  0  0  0  0  0  0  0  0  0
    4.1569    0.8000    0.0000 C   0  0  0  0  0  0  0  0  0  0  0  0
    4.1569    2.4000    0.0000 Cl  0  0  0  0  0  0  0  0  0  0  0  0
    5.5425   -0.0000    0.0000 C   0  0  0  0  0  0  0  0  0  0  0  0
    6.9282    0.8000    0.0000 Cl  0  0  0  0  0  0  0  0  0  0  0  0
    5.5425   -1.6000    0.0000 C   0  0  0  0  0  0  0  0  0  0  0  0
    6.9282   -2.4000    0.0000 Cl  0  0  0  0  0  0  0  0  0  0  0  0
    4.1569   -2.4000    0.0000 C   0  0  0  0  0  0  0  0  0  0  0  0
    4.1569   -4.0000    0.0000 Cl  0  0  0  0  0  0  0  0  0  0  0  0
    1.3857    0.8000    0.0000 O   0  0  0  0  0  0  0  0  0  0  0  0
  1  2  1  0  0  0  0
  2  3  1  0  0  0  0
  2  4  2  0  0  0  0
  4  5  1  0  0  0  0
  4  6  1  0  0  0  0
  6  7  1  0  0  0  0
  6  8  2  0  0  0  0
  8  9  1  0  0  0  0
  8 10  1  0  0  0  0
 10  1  2  0  0  0  0
 10 11  1  0  0  0  0
 11 12  1  0  0  0  0
 12 13  1  0  0  0  0
 13 14  2  0  0  0  0
 14 15  1  0  0  0  0
 14 16  1  0  0  0  0
 16 17  1  0  0  0  0
 16 18  2  0  0  0  0
 18 19  1  0  0  0  0
 18 20  1  0  0  0  0
 20 12  2  0  0  0  0
 20 21  1  0  0  0  0
 13 22  1  0  0  0  0
 22  1  1  0  0  0  0
M  END
> <ChemID>
102658

> <source_casrn>
35822-46-9|37871-00-4

> <CAS>
35822-46-9

> <SMILES>
Clc1cc2Oc3c(Oc2c(Cl)c1Cl)c(Cl)c(Cl)c(Cl)c3Cl

> <NAME>
1,2,3,4,6,7,8-HEPTACHLORODIBENZO-P-DIOXIN, HEPTACHLORODIBENZO-P-DIOXIN

> <preferred_name>
1,2,3,4,6,7,8-Heptachlorodibenzodioxin

> <iupac>
1,2,3,4,6,7,8-heptachlorooxanthrene

> <MPID>
27078|27087

> <dsstox_substance_id>
DTXSID1052034

> <Canonical_QSARr>
Clc1cc2Oc3c(Oc2c(Cl)c1Cl)c(Cl)c(Cl)c(Cl)c3Cl

> <InChI_Code_QSARr>
InChI=1S/C12HCl7O2/c13-2-1-3-10(7(17)4(2)14)21-12-9(19)6(16)5(15)8(18)11(12)20-3/h1H

> <InChI Key_QSARr>
WCLNVRQZUKYVAI-UHFFFAOYSA-N

> <Salt_Solvent>
?

> <LogVP>
-10.18835

$$$$
102664
  -INDIGO-08031723152D

 34 35  0  0  0  0  0  0  0  0999 V2000
   -3.8333   -1.7962    0.0000 N   0  0  0  0  0  0  0  0  0  0  0  0
   -2.2419   -1.6290    0.0000 C   0  0  0  0  0  0  0  0  0  0  0  0
   -1.5912   -0.1672    0.0000 N   0  0  0  0  0  0  0  0  0  0  0  0
   -2.5316    1.1272    0.0000 H   0  0  0  0  0  0  0  0  0  0  0  0
   -0.0001    0.0000    0.0000 C   0  0  0  0  0  0  0  0  0  0  0  0
    0.1674   -1.5912    0.0000 H   0  0  0  0  0  0  0  0  0  0  0  0
    1.5913    0.1672    0.0000 C   0  0  0  0  0  0  0  0  0  0  0  0
    3.1825    0.3344    0.0000 H   0  0  0  0  0  0  0  0  0  0  0  0
    2.2421    1.6289    0.0000 H   0  0  0  0  0  0  0  0  0  0  0  0
    2.5317   -1.1272    0.0000 H   0  0  0  0  0  0  0  0  0  0  0  0
   -0.1672    1.5913    0.0000 C   0  0  0  0  0  0  0  0  0  0  0  0
   -0.3344    3.1825    0.0000 H   0  0  0  0  0  0  0  0  0  0  0  0
    1.1271    2.5316    0.0000 H   0  0  0  0  0  0  0  0  0  0  0  0
   -1.6290    2.2420    0.0000 H   0  0  0  0  0  0  0  0  0  0  0  0
   -1.3015   -2.9234    0.0000 O   0  0  0  0  0  0  0  0  0  0  0  0
   -4.9038   -0.6072    0.0000 C   0  0  0  0  0  0  0  0  0  0  0  0
   -4.5711    0.9579    0.0000 O   0  0  0  0  0  0  0  0  0  0  0  0
   -6.3656   -1.2579    0.0000 N   0  0  0  0  0  0  0  0  0  0  0  0
   -7.7511   -0.4580    0.0000 C   0  0  0  0  0  0  0  0  0  0  0  0
   -7.7511    1.1421    0.0000 C   0  0  0  0  0  0  0  0  0  0  0  0
   -6.3656    1.9420    0.0000 H   0  0  0  0  0  0  0  0  0  0  0  0
   -9.1368    1.9420    0.0000 C   0  0  0  0  0  0  0  0  0  0  0  0
   -9.1368    3.5421    0.0000 Cl  0  0  0  0  0  0  0  0  0  0  0  0
  -10.5223    1.1421    0.0000 C   0  0  0  0  0  0  0  0  0  0  0  0
  -11.9081    1.9420    0.0000 H   0  0  0  0  0  0  0  0  0  0  0  0
  -10.5223   -0.4580    0.0000 C   0  0  0  0  0  0  0  0  0  0  0  0
  -11.9081   -1.2579    0.0000 Cl  0  0  0  0  0  0  0  0  0  0  0  0
   -9.1368   -1.2579    0.0000 C   0  0  0  0  0  0  0  0  0  0  0  0
   -9.1368   -2.8580    0.0000 H   0  0  0  0  0  0  0  0  0  0  0  0
   -6.1984   -2.8492    0.0000 C   0  0  0  0  0  0  0  0  0  0  0  0
   -7.3873   -3.9198    0.0000 O   0  0  0  0  0  0  0  0  0  0  0  0
   -4.6333   -3.1818    0.0000 C   0  0  0  0  0  0  0  0  0  0  0  0
   -5.1276   -4.7035    0.0000 H   0  0  0  0  0  0  0  0  0  0  0  0
   -3.1715   -3.8326    0.0000 H   0  0  0  0  0  0  0  0  0  0  0  0
  1  2  1  0  0  0  0
  2  3  1  0  0  0  0
  3  4  1  0  0  0  0
  3  5  1  0  0  0  0
  5  6  1  0  0  0  0
  5  7  1  0  0  0  0
  7  8  1  0  0  0  0
  7  9  1  0  0  0  0
  7 10  1  0  0  0  0
  5 11  1  0  0  0  0
 11 12  1  0  0  0  0
 11 13  1  0  0  0  0
 11 14  1  0  0  0  0
  2 15  2  0  0  0  0
  1 16  1  0  0  0  0
 16 17  2  0  0  0  0
 16 18  1  0  0  0  0
 18 19  1  0  0  0  0
 19 20  1  0  0  0  0
 20 21  1  0  0  0  0
 20 22  2  0  0  0  0
 22 23  1  0  0  0  0
 22 24  1  0  0  0  0
 24 25  1  0  0  0  0
 24 26  2  0  0  0  0
 26 27  1  0  0  0  0
 26 28  1  0  0  0  0
 28 19  2  0  0  0  0
 28 29  1  0  0  0  0
 18 30  1  0  0  0  0
 30 31  2  0  0  0  0
 30 32  1  0  0  0  0
 32  1  1  0  0  0  0
 32 33  1  0  0  0  0
 32 34  1  0  0  0  0
M  END
> <ChemID>
102664

> <source_casrn>
36734-19-7

> <CAS>
36734-19-7

> <SMILES>
CC(C)NC(=O)N1CC(=O)N(c2cc(Cl)cc(Cl)c2)C1=O

> <NAME>
ROVRAL (IPRODIONE)

> <preferred_name>
Iprodione

> <iupac>
3-(3,5-dichlorophenyl)-2,4-dioxo-N-(propan-2-yl)imidazolidine-1-carboxamide

> <MPID>
27082

> <dsstox_substance_id>
DTXSID3024154

> <Canonical_QSARr>
CC(C)NC(=O)N1CC(=O)N(c2cc(Cl)cc(Cl)c2)C1=O

> <InChI_Code_QSARr>
InChI=1S/C13H13Cl2N3O3/c1-7(2)16-12(20)17-6-11(19)18(13(17)21)10-4-8(14)3-9(15)5-10/h3-5,7H,6H2,1-2H3,(H,16,20)

> <InChI Key_QSARr>
ONUFESLQCSAYKA-UHFFFAOYSA-N

> <Salt_Solvent>
?

> <LogVP>
-8.426

$$$$
102668
  -INDIGO-08031723152D

 23 22  0  0  0  0  0  0  0  0999 V2000
    0.0001   -1.6000    0.0000 C   0  0  0  0  0  0  0  0  0  0  0  0
    1.3856   -2.4000    0.0000 O   0  0  0  0  0  0  0  0  0  0  0  0
    0.0001   -0.0000    0.0000 N   0  0  0  0  0  0  0  0  0  0  0  0
   -1.3856    0.8000    0.0000 C   0  0  0  0  0  0  0  0  0  0  0  0
   -1.9979    2.2782    0.0000 H   0  0  0  0  0  0  0  0  0  0  0  0
   -0.7734    2.2782    0.0000 H   0  0  0  0  0  0  0  0  0  0  0  0
   -2.7712   -0.0000    0.0000 C   0  0  0  0  0  0  0  0  0  0  0  0
   -2.7712   -1.6000    0.0000 H   0  0  0  0  0  0  0  0  0  0  0  0
   -4.1569    0.8000    0.0000 C   0  0  0  0  0  0  0  0  0  0  0  0
   -5.5426   -0.0000    0.0000 H   0  0  0  0  0  0  0  0  0  0  0  0
   -4.1569    2.4000    0.0000 H   0  0  0  0  0  0  0  0  0  0  0  0
    1.3856    0.8000    0.0000 C   0  0  0  0  0  0  0  0  0  0  0  0
    0.7734    2.2782    0.0000 H   0  0  0  0  0  0  0  0  0  0  0  0
    1.9979    2.2782    0.0000 H   0  0  0  0  0  0  0  0  0  0  0  0
    2.7712   -0.0000    0.0000 C   0  0  0  0  0  0  0  0  0  0  0  0
    2.7712   -1.6000    0.0000 H   0  0  0  0  0  0  0  0  0  0  0  0
    4.1569    0.8000    0.0000 C   0  0  0  0  0  0  0  0  0  0  0  0
    5.5426   -0.0000    0.0000 H   0  0  0  0  0  0  0  0  0  0  0  0
    4.1569    2.4000    0.0000 H   0  0  0  0  0  0  0  0  0  0  0  0
   -1.3856   -2.4000    0.0000 C   0  0  0  0  0  0  0  0  0  0  0  0
   -1.3856   -4.0000    0.0000 H   0  0  0  0  0  0  0  0  0  0  0  0
   -2.7712   -3.2000    0.0000 Cl  0  0  0  0  0  0  0  0  0  0  0  0
    0.0001   -3.2000    0.0000 Cl  0  0  0  0  0  0  0  0  0  0  0  0
  1  2  2  0  0  0  0
  1  3  1  0  0  0  0
  3  4  1  0  0  0  0
  4  5  1  0  0  0  0
  4  6  1  0  0  0  0
  4  7  1  0  0  0  0
  7  8  1  0  0  0  0
  7  9  2  0  0  0  0
  9 10  1  0  0  0  0
  9 11  1  0  0  0  0
  3 12  1  0  0  0  0
 12 13  1  0  0  0  0
 12 14  1  0  0  0  0
 12 15  1  0  0  0  0
 15 16  1  0  0  0  0
 15 17  2  0  0  0  0
 17 18  1  0  0  0  0
 17 19  1  0  0  0  0
  1 20  1  0  0  0  0
 20 21  1  0  0  0  0
 20 22  1  0  0  0  0
 20 23  1  0  0  0  0
M  END
> <ChemID>
102668

> <source_casrn>
37764-25-3

> <CAS>
37764-25-3

> <SMILES>
C=CCN(CC=C)C(=O)C(Cl)Cl

> <NAME>
ACETAMIDE, 2,2-DICHLORO-N,N-DI-2-PROPENYL-

> <preferred_name>
Dichlormid

> <iupac>
2,2-dichloro-N,N-di(prop-2-en-1-yl)acetamide

> <MPID>
27086

> <dsstox_substance_id>
DTXSID4027997

> <Canonical_QSARr>
C=CCN(CC=C)C(=O)C(Cl)Cl

> <InChI_Code_QSARr>
InChI=1S/C8H11Cl2NO/c1-3-5-11(6-4-2)8(12)7(9)10/h3-4,7H,1-2,5-6H2

> <InChI Key_QSARr>
YRMLFORXOOIJDR-UHFFFAOYSA-N

> <Salt_Solvent>
?

> <LogVP>
-2.2218

$$$$
102673
  -INDIGO-08031723152D

 22 23  0  0  0  0  0  0  0  0999 V2000
   -0.0001    0.0000    0.0000 C   0  0  0  0  0  0  0  0  0  0  0  0
    1.6001   -0.0000    0.0000 C   0  0  0  0  0  0  0  0  0  0  0  0
    2.4001   -1.3856    0.0000 C   0  0  0  0  0  0  0  0  0  0  0  0
    1.6001   -2.7713    0.0000 Cl  0  0  0  0  0  0  0  0  0  0  0  0
    4.0000   -1.3856    0.0000 C   0  0  0  0  0  0  0  0  0  0  0  0
    4.8000   -2.7713    0.0000 H   0  0  0  0  0  0  0  0  0  0  0  0
    4.8000    0.0000    0.0000 C   0  0  0  0  0  0  0  0  0  0  0  0
    6.4000    0.0000    0.0000 Cl  0  0  0  0  0  0  0  0  0  0  0  0
    4.0000    1.3856    0.0000 C   0  0  0  0  0  0  0  0  0  0  0  0
    4.8000    2.7713    0.0000 H   0  0  0  0  0  0  0  0  0  0  0  0
    2.4001    1.3856    0.0000 C   0  0  0  0  0  0  0  0  0  0  0  0
    1.6001    2.7713    0.0000 H   0  0  0  0  0  0  0  0  0  0  0  0
   -0.8001    1.3856    0.0000 C   0  0  0  0  0  0  0  0  0  0  0  0
   -0.0001    2.7713    0.0000 Cl  0  0  0  0  0  0  0  0  0  0  0  0
   -2.4000    1.3856    0.0000 C   0  0  0  0  0  0  0  0  0  0  0  0
   -3.2000    2.7713    0.0000 H   0  0  0  0  0  0  0  0  0  0  0  0
   -3.2000    0.0000    0.0000 C   0  0  0  0  0  0  0  0  0  0  0  0
   -4.8000   -0.0000    0.0000 Cl  0  0  0  0  0  0  0  0  0  0  0  0
   -2.4000   -1.3856    0.0000 C   0  0  0  0  0  0  0  0  0  0  0  0
   -3.2000   -2.7713    0.0000 Cl  0  0  0  0  0  0  0  0  0  0  0  0
   -0.8001   -1.3856    0.0000 C   0  0  0  0  0  0  0  0  0  0  0  0
   -0.0001   -2.7713    0.0000 H   0  0  0  0  0  0  0  0  0  0  0  0
  1  2  1  0  0  0  0
  2  3  1  0  0  0  0
  3  4  1  0  0  0  0
  3  5  2  0  0  0  0
  5  6  1  0  0  0  0
  5  7  1  0  0  0  0
  7  8  1  0  0  0  0
  7  9  2  0  0  0  0
  9 10  1  0  0  0  0
  9 11  1  0  0  0  0
 11  2  2  0  0  0  0
 11 12  1  0  0  0  0
  1 13  1  0  0  0  0
 13 14  1  0  0  0  0
 13 15  2  0  0  0  0
 15 16  1  0  0  0  0
 15 17  1  0  0  0  0
 17 18  1  0  0  0  0
 17 19  2  0  0  0  0
 19 20  1  0  0  0  0
 19 21  1  0  0  0  0
 21  1  2  0  0  0  0
 21 22  1  0  0  0  0
M  END
> <ChemID>
102673

> <source_casrn>
38380-01-7

> <CAS>
38380-01-7

> <SMILES>
Clc1cc(Cl)c(cc1)-c1cc(Cl)c(Cl)cc1Cl

> <NAME>
2,2',4,4',5-PENTACHLOROBIPHENYL

> <preferred_name>
2,2',4,4',5-Pentachlorobiphenyl

> <iupac>
1,2,4-trichloro-5-(2,4-dichlorophenyl)benzene

> <MPID>
27091

> <dsstox_substance_id>
DTXSID1073496

> <Canonical_QSARr>
Clc1cc(Cl)c(cc1)-c1cc(Cl)c(Cl)cc1Cl

> <InChI_Code_QSARr>
InChI=1S/C12H5Cl5/c13-6-1-2-7(9(14)3-6)8-4-11(16)12(17)5-10(8)15/h1-5H

> <InChI Key_QSARr>
LMQJBFRGXHMNOX-UHFFFAOYSA-N

> <Salt_Solvent>
?

> <LogVP>
-4.6576

$$$$
102677
  -INDIGO-08031723152D

 22 23  0  0  0  0  0  0  0  0999 V2000
   -2.4000    1.3856    0.0000 C   0  0  0  0  0  0  0  0  0  0  0  0
   -0.8001    1.3856    0.0000 C   0  0  0  0  0  0  0  0  0  0  0  0
   -0.0001    2.7713    0.0000 Cl  0  0  0  0  0  0  0  0  0  0  0  0
   -0.0001   -0.0000    0.0000 C   0  0  0  0  0  0  0  0  0  0  0  0
    1.6001    0.0000    0.0000 C   0  0  0  0  0  0  0  0  0  0  0  0
    2.4001    1.3856    0.0000 C   0  0  0  0  0  0  0  0  0  0  0  0
    1.6001    2.7713    0.0000 H   0  0  0  0  0  0  0  0  0  0  0  0
    4.0000    1.3856    0.0000 C   0  0  0  0  0  0  0  0  0  0  0  0
    4.8000    2.7713    0.0000 Cl  0  0  0  0  0  0  0  0  0  0  0  0
    4.8000    0.0000    0.0000 C   0  0  0  0  0  0  0  0  0  0  0  0
    6.4000    0.0000    0.0000 Cl  0  0  0  0  0  0  0  0  0  0  0  0
    4.0000   -1.3856    0.0000 C   0  0  0  0  0  0  0  0  0  0  0  0
    4.8000   -2.7713    0.0000 H   0  0  0  0  0  0  0  0  0  0  0  0
    2.4001   -1.3856    0.0000 C   0  0  0  0  0  0  0  0  0  0  0  0
    1.6001   -2.7713    0.0000 H   0  0  0  0  0  0  0  0  0  0  0  0
   -0.8001   -1.3856    0.0000 C   0  0  0  0  0  0  0  0  0  0  0  0
   -0.0001   -2.7713    0.0000 H   0  0  0  0  0  0  0  0  0  0  0  0
   -2.4000   -1.3856    0.0000 C   0  0  0  0  0  0  0  0  0  0  0  0
   -3.2000   -2.7713    0.0000 Cl  0  0  0  0  0  0  0  0  0  0  0  0
   -3.2000   -0.0000    0.0000 C   0  0  0  0  0  0  0  0  0  0  0  0
   -4.8000   -0.0000    0.0000 Cl  0  0  0  0  0  0  0  0  0  0  0  0
   -3.2000    2.7713    0.0000 Cl  0  0  0  0  0  0  0  0  0  0  0  0
  1  2  1  0  0  0  0
  2  3  1  0  0  0  0
  2  4  2  0  0  0  0
  4  5  1  0  0  0  0
  5  6  1  0  0  0  0
  6  7  1  0  0  0  0
  6  8  2  0  0  0  0
  8  9  1  0  0  0  0
  8 10  1  0  0  0  0
 10 11  1  0  0  0  0
 10 12  2  0  0  0  0
 12 13  1  0  0  0  0
 12 14  1  0  0  0  0
 14  5  2  0  0  0  0
 14 15  1  0  0  0  0
  4 16  1  0  0  0  0
 16 17  1  0  0  0  0
 16 18  2  0  0  0  0
 18 19  1  0  0  0  0
 18 20  1  0  0  0  0
 20  1  2  0  0  0  0
 20 21  1  0  0  0  0
  1 22  1  0  0  0  0
M  END
> <ChemID>
102677

> <source_casrn>
38380-08-4

> <CAS>
38380-08-4

> <SMILES>
Clc1c(cc(Cl)c(Cl)c1Cl)-c1cc(Cl)c(Cl)cc1

> <NAME>
2,3,3',4,4',5-HEXACHLOROBIPHENYL

> <preferred_name>
2,3,3',4,4',5-Hexachlorobiphenyl

> <iupac>
2,3,3',4,4',5-hexachlorobiphenyl

> <MPID>
27095

> <dsstox_substance_id>
DTXSID0052706

> <Canonical_QSARr>
Clc1c(cc(Cl)c(Cl)c1Cl)-c1cc(Cl)c(Cl)cc1

> <InChI_Code_QSARr>
InChI=1S/C12H4Cl6/c13-7-2-1-5(3-8(7)14)6-4-9(15)11(17)12(18)10(6)16/h1-4H

> <InChI Key_QSARr>
LCXMEXLGMKFLQO-UHFFFAOYSA-N

> <Salt_Solvent>
?

> <LogVP>
-5.7932

$$$$
102684
  -INDIGO-08031723152D

 21 23  0  0  0  0  0  0  0  0999 V2000
   -1.7322    1.9239    0.0000 C   0  0  0  0  0  0  0  0  0  0  0  0
   -3.1939    2.5747    0.0000 C   0  0  0  0  0  0  0  0  0  0  0  0
   -3.3612    4.1659    0.0000 Cl  0  0  0  0  0  0  0  0  0  0  0  0
   -4.4883    1.6342    0.0000 C   0  0  0  0  0  0  0  0  0  0  0  0
   -5.9501    2.2850    0.0000 Cl  0  0  0  0  0  0  0  0  0  0  0  0
   -4.3212    0.0430    0.0000 C   0  0  0  0  0  0  0  0  0  0  0  0
   -5.6156   -0.8974    0.0000 Cl  0  0  0  0  0  0  0  0  0  0  0  0
   -2.8595   -0.6078    0.0000 C   0  0  0  0  0  0  0  0  0  0  0  0
   -2.6921   -2.1990    0.0000 Cl  0  0  0  0  0  0  0  0  0  0  0  0
   -1.5651    0.3327    0.0000 C   0  0  0  0  0  0  0  0  0  0  0  0
    0.0000    0.0000    0.0000 C   0  0  0  0  0  0  0  0  0  0  0  0
    0.8000    1.3856    0.0000 C   0  0  0  0  0  0  0  0  0  0  0  0
    2.4000    1.3856    0.0000 C   0  0  0  0  0  0  0  0  0  0  0  0
    3.2000    2.7713    0.0000 Cl  0  0  0  0  0  0  0  0  0  0  0  0
    3.2000    0.0000    0.0000 C   0  0  0  0  0  0  0  0  0  0  0  0
    4.8000    0.0000    0.0000 Cl  0  0  0  0  0  0  0  0  0  0  0  0
    2.4000   -1.3856    0.0000 C   0  0  0  0  0  0  0  0  0  0  0  0
    3.2000   -2.7713    0.0000 Cl  0  0  0  0  0  0  0  0  0  0  0  0
    0.8000   -1.3856    0.0000 C   0  0  0  0  0  0  0  0  0  0  0  0
    0.0000   -2.7713    0.0000 Cl  0  0  0  0  0  0  0  0  0  0  0  0
   -0.2707    2.5747    0.0000 O   0  0  0  0  0  0  0  0  0  0  0  0
  1  2  1  0  0  0  0
  2  3  1  0  0  0  0
  2  4  2  0  0  0  0
  4  5  1  0  0  0  0
  4  6  1  0  0  0  0
  6  7  1  0  0  0  0
  6  8  2  0  0  0  0
  8  9  1  0  0  0  0
  8 10  1  0  0  0  0
 10  1  2  0  0  0  0
 10 11  1  0  0  0  0
 11 12  1  0  0  0  0
 12 13  2  0  0  0  0
 13 14  1  0  0  0  0
 13 15  1  0  0  0  0
 15 16  1  0  0  0  0
 15 17  2  0  0  0  0
 17 18  1  0  0  0  0
 17 19  1  0  0  0  0
 19 11  2  0  0  0  0
 19 20  1  0  0  0  0
 12 21  1  0  0  0  0
 21  1  1  0  0  0  0
M  END
> <ChemID>
102684

> <source_casrn>
39001-02-0

> <CAS>
39001-02-0

> <SMILES>
Clc1c2oc3c(c2c(Cl)c(Cl)c1Cl)c(Cl)c(Cl)c(Cl)c3Cl

> <NAME>
OCTACHLORODIBENZOFURAN

> <preferred_name>
Octachlorodibenzofuran

> <iupac>
1,2,3,4,6,7,8,9-octachlorodibenzo[b,d]furan

> <MPID>
27100

> <dsstox_substance_id>
DTXSID3052062

> <Canonical_QSARr>
Clc1c2oc3c(c2c(Cl)c(Cl)c1Cl)c(Cl)c(Cl)c(Cl)c3Cl

> <InChI_Code_QSARr>
InChI=1S/C12Cl8O/c13-3-1-2-4(14)6(16)8(18)10(20)12(2)21-11(1)9(19)7(17)5(3)15

> <InChI Key_QSARr>
RHIROFAGUQOFLU-UHFFFAOYSA-N

> <Salt_Solvent>
?

> <LogVP>
-11.426

$$$$
102688
  -INDIGO-08031723152D

 22 24  0  0  0  0  0  0  0  0999 V2000
   -1.3856    0.8000    0.0000 O   0  0  0  0  0  0  0  0  0  0  0  0
   -2.7712   -0.0000    0.0000 C   0  0  0  0  0  0  0  0  0  0  0  0
   -2.7712   -1.6000    0.0000 C   0  0  0  0  0  0  0  0  0  0  0  0
   -4.1569   -2.4000    0.0000 C   0  0  0  0  0  0  0  0  0  0  0  0
   -4.1569   -4.0000    0.0000 H   0  0  0  0  0  0  0  0  0  0  0  0
   -5.5425   -1.6000    0.0000 C   0  0  0  0  0  0  0  0  0  0  0  0
   -6.9282   -2.4000    0.0000 H   0  0  0  0  0  0  0  0  0  0  0  0
   -5.5425   -0.0000    0.0000 C   0  0  0  0  0  0  0  0  0  0  0  0
   -6.9282    0.8000    0.0000 H   0  0  0  0  0  0  0  0  0  0  0  0
   -4.1569    0.8000    0.0000 C   0  0  0  0  0  0  0  0  0  0  0  0
   -4.1569    2.4000    0.0000 H   0  0  0  0  0  0  0  0  0  0  0  0
   -1.3856   -2.4000    0.0000 O   0  0  0  0  0  0  0  0  0  0  0  0
   -0.0001   -1.6000    0.0000 C   0  0  0  0  0  0  0  0  0  0  0  0
   -0.0001   -0.0000    0.0000 C   0  0  0  0  0  0  0  0  0  0  0  0
    1.3856    0.8000    0.0000 C   0  0  0  0  0  0  0  0  0  0  0  0
    2.7713   -0.0000    0.0000 C   0  0  0  0  0  0  0  0  0  0  0  0
    4.1569    0.8000    0.0000 H   0  0  0  0  0  0  0  0  0  0  0  0
    2.7713   -1.6000    0.0000 C   0  0  0  0  0  0  0  0  0  0  0  0
    4.1569   -2.4000    0.0000 H   0  0  0  0  0  0  0  0  0  0  0  0
    1.3856   -2.4000    0.0000 C   0  0  0  0  0  0  0  0  0  0  0  0
    1.3856   -4.0000    0.0000 H   0  0  0  0  0  0  0  0  0  0  0  0
    1.3856    2.4000    0.0000 Cl  0  0  0  0  0  0  0  0  0  0  0  0
  1  2  1  0  0  0  0
  2  3  1  0  0  0  0
  3  4  2  0  0  0  0
  4  5  1  0  0  0  0
  4  6  1  0  0  0  0
  6  7  1  0  0  0  0
  6  8  2  0  0  0  0
  8  9  1  0  0  0  0
  8 10  1  0  0  0  0
 10  2  2  0  0  0  0
 10 11  1  0  0  0  0
  3 12  1  0  0  0  0
 12 13  1  0  0  0  0
 13 14  1  0  0  0  0
 14  1  1  0  0  0  0
 14 15  2  0  0  0  0
 15 16  1  0  0  0  0
 16 17  1  0  0  0  0
 16 18  2  0  0  0  0
 18 19  1  0  0  0  0
 18 20  1  0  0  0  0
 20 13  2  0  0  0  0
 20 21  1  0  0  0  0
 15 22  1  0  0  0  0
M  END
> <ChemID>
102688

> <source_casrn>
39227-53-7

> <CAS>
NOCAS_872020

> <SMILES>
Clc1cccc2Oc3ccccc3Oc21

> <NAME>
1-CHLORODIBENZO-P-DIOXIN

> <preferred_name>


> <iupac>


> <MPID>
27104

> <dsstox_substance_id>
DTXSID80872020

> <Canonical_QSARr>
Clc1cccc2Oc3ccccc3Oc21

> <InChI_Code_QSARr>
InChI=1S/C12H7ClO2/c13-8-4-3-7-11-12(8)15-10-6-2-1-5-9(10)14-11/h1-7H

> <InChI Key_QSARr>
VGGGRWRBGXENKI-UHFFFAOYSA-N

> <Salt_Solvent>
?

> <LogVP>
-4.0458

$$$$
102692
  -INDIGO-08031723152D

 22 24  0  0  0  0  0  0  0  0999 V2000
    0.0001   -0.0000    0.0000 C   0  0  0  0  0  0  0  0  0  0  0  0
    1.3857    0.8000    0.0000 O   0  0  0  0  0  0  0  0  0  0  0  0
    2.7712   -0.0000    0.0000 C   0  0  0  0  0  0  0  0  0  0  0  0
    4.1569    0.8000    0.0000 C   0  0  0  0  0  0  0  0  0  0  0  0
    5.5425   -0.0000    0.0000 C   0  0  0  0  0  0  0  0  0  0  0  0
    5.5425   -1.6000    0.0000 C   0  0  0  0  0  0  0  0  0  0  0  0
    6.9282   -2.4000    0.0000 H   0  0  0  0  0  0  0  0  0  0  0  0
    4.1569   -2.4000    0.0000 C   0  0  0  0  0  0  0  0  0  0  0  0
    4.1569   -4.0000    0.0000 Cl  0  0  0  0  0  0  0  0  0  0  0  0
    2.7712   -1.6000    0.0000 C   0  0  0  0  0  0  0  0  0  0  0  0
    1.3857   -2.4000    0.0000 O   0  0  0  0  0  0  0  0  0  0  0  0
    0.0001   -1.6000    0.0000 C   0  0  0  0  0  0  0  0  0  0  0  0
   -1.3856   -2.4000    0.0000 C   0  0  0  0  0  0  0  0  0  0  0  0
   -1.3856   -4.0000    0.0000 Cl  0  0  0  0  0  0  0  0  0  0  0  0
   -2.7713   -1.6000    0.0000 C   0  0  0  0  0  0  0  0  0  0  0  0
   -4.1569   -2.4000    0.0000 Cl  0  0  0  0  0  0  0  0  0  0  0  0
   -2.7713   -0.0000    0.0000 C   0  0  0  0  0  0  0  0  0  0  0  0
   -4.1569    0.8000    0.0000 H   0  0  0  0  0  0  0  0  0  0  0  0
   -1.3856    0.8000    0.0000 C   0  0  0  0  0  0  0  0  0  0  0  0
   -1.3856    2.4000    0.0000 Cl  0  0  0  0  0  0  0  0  0  0  0  0
    6.9282    0.8000    0.0000 Cl  0  0  0  0  0  0  0  0  0  0  0  0
    4.1569    2.4000    0.0000 Cl  0  0  0  0  0  0  0  0  0  0  0  0
  1  2  1  0  0  0  0
  2  3  1  0  0  0  0
  3  4  1  0  0  0  0
  4  5  2  0  0  0  0
  5  6  1  0  0  0  0
  6  7  1  0  0  0  0
  6  8  2  0  0  0  0
  8  9  1  0  0  0  0
  8 10  1  0  0  0  0
 10  3  2  0  0  0  0
 10 11  1  0  0  0  0
 11 12  1  0  0  0  0
 12  1  1  0  0  0  0
 12 13  2  0  0  0  0
 13 14  1  0  0  0  0
 13 15  1  0  0  0  0
 15 16  1  0  0  0  0
 15 17  2  0  0  0  0
 17 18  1  0  0  0  0
 17 19  1  0  0  0  0
 19  1  2  0  0  0  0
 19 20  1  0  0  0  0
  5 21  1  0  0  0  0
  4 22  1  0  0  0  0
M  END
> <ChemID>
102692

> <source_casrn>
39227-62-8

> <CAS>
39227-62-8

> <SMILES>
Clc1cc(Cl)c(Cl)c2Oc3c(Oc12)c(Cl)c(Cl)cc3Cl

> <NAME>
1,2,4,6,7,9-HEXACHLORODIBENZO-P-DIOXIN

> <preferred_name>
1,2,4,6,7,9-Hexachlorodibenzo-p-dioxin

> <iupac>
1,2,4,6,7,9-hexachlorooxanthrene

> <MPID>
27108

> <dsstox_substance_id>
DTXSID1074042

> <Canonical_QSARr>
Clc1cc(Cl)c(Cl)c2Oc3c(Oc12)c(Cl)c(Cl)cc3Cl

> <InChI_Code_QSARr>
InChI=1S/C12H2Cl6O2/c13-3-1-5(15)9-11(7(3)17)20-10-6(16)2-4(14)8(18)12(10)19-9/h1-2H

> <InChI Key_QSARr>
BSJDQMWAWFTDGD-UHFFFAOYSA-N

> <Salt_Solvent>
?

> <LogVP>
-10.2924

$$$$
102700
  -INDIGO-08031723152D

 22 24  0  0  0  0  0  0  0  0999 V2000
    0.0001   -0.0000    0.0000 C   0  0  0  0  0  0  0  0  0  0  0  0
   -1.3856    0.8000    0.0000 C   0  0  0  0  0  0  0  0  0  0  0  0
   -1.3856    2.4000    0.0000 H   0  0  0  0  0  0  0  0  0  0  0  0
   -2.7713   -0.0000    0.0000 C   0  0  0  0  0  0  0  0  0  0  0  0
   -4.1569    0.8000    0.0000 Cl  0  0  0  0  0  0  0  0  0  0  0  0
   -2.7713   -1.6000    0.0000 C   0  0  0  0  0  0  0  0  0  0  0  0
   -4.1569   -2.4000    0.0000 Cl  0  0  0  0  0  0  0  0  0  0  0  0
   -1.3856   -2.4000    0.0000 C   0  0  0  0  0  0  0  0  0  0  0  0
   -1.3856   -4.0000    0.0000 H   0  0  0  0  0  0  0  0  0  0  0  0
    0.0001   -1.6000    0.0000 C   0  0  0  0  0  0  0  0  0  0  0  0
    1.3857   -2.4000    0.0000 O   0  0  0  0  0  0  0  0  0  0  0  0
    2.7712   -1.6000    0.0000 C   0  0  0  0  0  0  0  0  0  0  0  0
    2.7712   -0.0000    0.0000 C   0  0  0  0  0  0  0  0  0  0  0  0
    4.1569    0.8000    0.0000 C   0  0  0  0  0  0  0  0  0  0  0  0
    4.1569    2.4000    0.0000 Cl  0  0  0  0  0  0  0  0  0  0  0  0
    5.5425   -0.0000    0.0000 C   0  0  0  0  0  0  0  0  0  0  0  0
    6.9282    0.8000    0.0000 Cl  0  0  0  0  0  0  0  0  0  0  0  0
    5.5425   -1.6000    0.0000 C   0  0  0  0  0  0  0  0  0  0  0  0
    6.9282   -2.4000    0.0000 Cl  0  0  0  0  0  0  0  0  0  0  0  0
    4.1569   -2.4000    0.0000 C   0  0  0  0  0  0  0  0  0  0  0  0
    4.1569   -4.0000    0.0000 H   0  0  0  0  0  0  0  0  0  0  0  0
    1.3857    0.8000    0.0000 O   0  0  0  0  0  0  0  0  0  0  0  0
  1  2  1  0  0  0  0
  2  3  1  0  0  0  0
  2  4  2  0  0  0  0
  4  5  1  0  0  0  0
  4  6  1  0  0  0  0
  6  7  1  0  0  0  0
  6  8  2  0  0  0  0
  8  9  1  0  0  0  0
  8 10  1  0  0  0  0
 10  1  2  0  0  0  0
 10 11  1  0  0  0  0
 11 12  1  0  0  0  0
 12 13  1  0  0  0  0
 13 14  2  0  0  0  0
 14 15  1  0  0  0  0
 14 16  1  0  0  0  0
 16 17  1  0  0  0  0
 16 18  2  0  0  0  0
 18 19  1  0  0  0  0
 18 20  1  0  0  0  0
 20 12  2  0  0  0  0
 20 21  1  0  0  0  0
 13 22  1  0  0  0  0
 22  1  1  0  0  0  0
M  END
> <ChemID>
102700

> <source_casrn>
40321-76-4

> <CAS>
40321-76-4

> <SMILES>
Clc1c(Cl)c2Oc3cc(Cl)c(Cl)cc3Oc2cc1Cl

> <NAME>
1,2,3,7,8-PENTACHLORODIBENZO-P-DIOXIN

> <preferred_name>
1,2,3,7,8-Pentachlorodibenzo-p-dioxin

> <iupac>
1,2,3,7,8-pentachlorooxanthrene

> <MPID>
27113

> <dsstox_substance_id>
DTXSID7052078

> <Canonical_QSARr>
Clc1c(Cl)c2Oc3cc(Cl)c(Cl)cc3Oc2cc1Cl

> <InChI_Code_QSARr>
InChI=1S/C12H3Cl5O2/c13-4-1-7-8(2-5(4)14)19-12-9(18-7)3-6(15)10(16)11(12)17/h1-3H

> <InChI Key_QSARr>
FSPZPQQWDODWAU-UHFFFAOYSA-N

> <Salt_Solvent>
?

> <LogVP>
-9.3615

$$$$
102706
  -INDIGO-08031723152D

 49 48  0  0  0  0  0  0  0  0999 V2000
    6.4001   -2.7713    0.0000 C   0  0  0  0  0  0  0  0  0  0  0  0
    7.2001   -1.3856    0.0000 H   0  0  0  0  0  0  0  0  0  0  0  0
    4.7999   -2.7713    0.0000 C   0  0  0  0  0  0  0  0  0  0  0  0
    4.0000   -1.3856    0.0000 C   0  0  0  0  0  0  0  0  0  0  0  0
    4.7999    0.0001    0.0000 H   0  0  0  0  0  0  0  0  0  0  0  0
    2.4001   -1.3856    0.0000 C   0  0  0  0  0  0  0  0  0  0  0  0
    1.5999   -2.7713    0.0000 H   0  0  0  0  0  0  0  0  0  0  0  0
    1.5999    0.0001    0.0000 C   0  0  0  0  0  0  0  0  0  0  0  0
    2.8693    0.9741    0.0000 H   0  0  0  0  0  0  0  0  0  0  0  0
    1.8090    1.5862    0.0000 H   0  0  0  0  0  0  0  0  0  0  0  0
   -0.0000    0.0001    0.0000 C   0  0  0  0  0  0  0  0  0  0  0  0
   -0.0000   -1.6000    0.0000 H   0  0  0  0  0  0  0  0  0  0  0  0
   -1.5999    0.0001    0.0000 C   0  0  0  0  0  0  0  0  0  0  0  0
   -1.8087    1.5862    0.0000 H   0  0  0  0  0  0  0  0  0  0  0  0
   -2.8693    0.9741    0.0000 H   0  0  0  0  0  0  0  0  0  0  0  0
   -2.3999   -1.3856    0.0000 C   0  0  0  0  0  0  0  0  0  0  0  0
   -2.1911   -2.9720    0.0000 H   0  0  0  0  0  0  0  0  0  0  0  0
   -1.1308   -2.3596    0.0000 H   0  0  0  0  0  0  0  0  0  0  0  0
   -4.0001   -1.3856    0.0000 C   0  0  0  0  0  0  0  0  0  0  0  0
   -4.2088    0.2007    0.0000 H   0  0  0  0  0  0  0  0  0  0  0  0
   -5.2695   -0.4116    0.0000 H   0  0  0  0  0  0  0  0  0  0  0  0
   -4.8000   -2.7713    0.0000 C   0  0  0  0  0  0  0  0  0  0  0  0
   -3.2966   -3.3185    0.0000 H   0  0  0  0  0  0  0  0  0  0  0  0
   -5.3471   -4.2747    0.0000 C   0  0  0  0  0  0  0  0  0  0  0  0
   -5.8946   -5.7783    0.0000 H   0  0  0  0  0  0  0  0  0  0  0  0
   -6.9228   -4.5526    0.0000 H   0  0  0  0  0  0  0  0  0  0  0  0
   -4.3189   -5.5005    0.0000 H   0  0  0  0  0  0  0  0  0  0  0  0
   -6.3037   -2.2241    0.0000 C   0  0  0  0  0  0  0  0  0  0  0  0
   -7.8070   -1.6769    0.0000 H   0  0  0  0  0  0  0  0  0  0  0  0
   -6.5813   -0.6483    0.0000 H   0  0  0  0  0  0  0  0  0  0  0  0
   -7.5290   -3.2525    0.0000 H   0  0  0  0  0  0  0  0  0  0  0  0
   -0.0000    1.6000    0.0000 C   0  0  0  0  0  0  0  0  0  0  0  0
   -0.0000    3.2000    0.0000 H   0  0  0  0  0  0  0  0  0  0  0  0
    1.2257    2.6285    0.0000 H   0  0  0  0  0  0  0  0  0  0  0  0
   -1.2257    2.6285    0.0000 H   0  0  0  0  0  0  0  0  0  0  0  0
    4.0000   -4.1569    0.0000 C   0  0  0  0  0  0  0  0  0  0  0  0
    3.2001   -5.5425    0.0000 H   0  0  0  0  0  0  0  0  0  0  0  0
    4.7999   -5.5425    0.0000 H   0  0  0  0  0  0  0  0  0  0  0  0
    2.4001   -4.1569    0.0000 H   0  0  0  0  0  0  0  0  0  0  0  0
    7.2001   -4.1569    0.0000 C   0  0  0  0  0  0  0  0  0  0  0  0
    8.8000   -4.1569    0.0000 O   0  0  0  0  0  0  0  0  0  0  0  0
    9.5999   -5.5425    0.0000 C   0  0  0  0  0  0  0  0  0  0  0  0
    8.3305   -6.5166    0.0000 H   0  0  0  0  0  0  0  0  0  0  0  0
    9.3911   -7.1289    0.0000 H   0  0  0  0  0  0  0  0  0  0  0  0
   11.2001   -5.5425    0.0000 C   0  0  0  0  0  0  0  0  0  0  0  0
   12.8000   -5.5425    0.0000 H   0  0  0  0  0  0  0  0  0  0  0  0
   12.0001   -6.9282    0.0000 H   0  0  0  0  0  0  0  0  0  0  0  0
   12.0001   -4.1569    0.0000 H   0  0  0  0  0  0  0  0  0  0  0  0
    6.4001   -5.5425    0.0000 O   0  0  0  0  0  0  0  0  0  0  0  0
  1  2  1  0  0  0  0
  1  3  2  0  0  0  0
  3  4  1  0  0  0  0
  4  5  1  0  0  0  0
  4  6  2  0  0  0  0
  6  7  1  0  0  0  0
  6  8  1  0  0  0  0
  8  9  1  0  0  0  0
  8 10  1  0  0  0  0
  8 11  1  0  0  0  0
 11 12  1  0  0  0  0
 11 13  1  0  0  0  0
 13 14  1  0  0  0  0
 13 15  1  0  0  0  0
 13 16  1  0  0  0  0
 16 17  1  0  0  0  0
 16 18  1  0  0  0  0
 16 19  1  0  0  0  0
 19 20  1  0  0  0  0
 19 21  1  0  0  0  0
 19 22  1  0  0  0  0
 22 23  1  0  0  0  0
 22 24  1  0  0  0  0
 24 25  1  0  0  0  0
 24 26  1  0  0  0  0
 24 27  1  0  0  0  0
 22 28  1  0  0  0  0
 28 29  1  0  0  0  0
 28 30  1  0  0  0  0
 28 31  1  0  0  0  0
 11 32  1  0  0  0  0
 32 33  1  0  0  0  0
 32 34  1  0  0  0  0
 32 35  1  0  0  0  0
  3 36  1  0  0  0  0
 36 37  1  0  0  0  0
 36 38  1  0  0  0  0
 36 39  1  0  0  0  0
  1 40  1  0  0  0  0
 40 41  1  0  0  0  0
 41 42  1  0  0  0  0
 42 43  1  0  0  0  0
 42 44  1  0  0  0  0
 42 45  1  0  0  0  0
 45 46  1  0  0  0  0
 45 47  1  0  0  0  0
 45 48  1  0  0  0  0
 40 49  2  0  0  0  0
M  END
> <ChemID>
102706

> <source_casrn>
41205-09-8

> <CAS>
41096-46-2

> <SMILES>
C/C(/C=C/CC(C)CCCC(C)C)=C\C(=O)OCC

> <NAME>
HYDROPRENE

> <preferred_name>
Hydroprene

> <iupac>
ethyl (2E,4E)-3,7,11-trimethyldodeca-2,4-dienoate

> <MPID>
27117

> <dsstox_substance_id>
DTXSID9042049

> <Canonical_QSARr>
CC(C=CCC(C)CCCC(C)C)=CC(=O)OCC

> <InChI_Code_QSARr>
InChI=1S/C17H30O2/c1-6-19-17(18)13-16(5)12-8-11-15(4)10-7-9-14(2)3/h8,12-15H,6-7,9-11H2,1-5H3/b12-8+,16-13+

> <InChI Key_QSARr>
FYQGBXGJFWXIPP-UEVLXMDPSA-N

> <Salt_Solvent>
?

> <LogVP>
-3.6126

$$$$
102710
  -INDIGO-08031723152D

 22 23  0  0  0  0  0  0  0  0999 V2000
   -0.0001    0.0000    0.0000 C   0  0  0  0  0  0  0  0  0  0  0  0
    1.6001   -0.0000    0.0000 C   0  0  0  0  0  0  0  0  0  0  0  0
    2.4001   -1.3856    0.0000 C   0  0  0  0  0  0  0  0  0  0  0  0
    1.6001   -2.7713    0.0000 Cl  0  0  0  0  0  0  0  0  0  0  0  0
    4.0000   -1.3856    0.0000 C   0  0  0  0  0  0  0  0  0  0  0  0
    4.8000   -2.7713    0.0000 H   0  0  0  0  0  0  0  0  0  0  0  0
    4.8000    0.0000    0.0000 C   0  0  0  0  0  0  0  0  0  0  0  0
    6.4000    0.0000    0.0000 H   0  0  0  0  0  0  0  0  0  0  0  0
    4.0000    1.3856    0.0000 C   0  0  0  0  0  0  0  0  0  0  0  0
    4.8000    2.7713    0.0000 H   0  0  0  0  0  0  0  0  0  0  0  0
    2.4001    1.3856    0.0000 C   0  0  0  0  0  0  0  0  0  0  0  0
    1.6001    2.7713    0.0000 Cl  0  0  0  0  0  0  0  0  0  0  0  0
   -0.8001    1.3856    0.0000 C   0  0  0  0  0  0  0  0  0  0  0  0
   -0.0001    2.7713    0.0000 Cl  0  0  0  0  0  0  0  0  0  0  0  0
   -2.4000    1.3856    0.0000 C   0  0  0  0  0  0  0  0  0  0  0  0
   -3.2000    2.7713    0.0000 H   0  0  0  0  0  0  0  0  0  0  0  0
   -3.2000    0.0000    0.0000 C   0  0  0  0  0  0  0  0  0  0  0  0
   -4.8000   -0.0000    0.0000 H   0  0  0  0  0  0  0  0  0  0  0  0
   -2.4000   -1.3856    0.0000 C   0  0  0  0  0  0  0  0  0  0  0  0
   -3.2000   -2.7713    0.0000 Cl  0  0  0  0  0  0  0  0  0  0  0  0
   -0.8001   -1.3856    0.0000 C   0  0  0  0  0  0  0  0  0  0  0  0
   -0.0001   -2.7713    0.0000 H   0  0  0  0  0  0  0  0  0  0  0  0
  1  2  1  0  0  0  0
  2  3  1  0  0  0  0
  3  4  1  0  0  0  0
  3  5  2  0  0  0  0
  5  6  1  0  0  0  0
  5  7  1  0  0  0  0
  7  8  1  0  0  0  0
  7  9  2  0  0  0  0
  9 10  1  0  0  0  0
  9 11  1  0  0  0  0
 11  2  2  0  0  0  0
 11 12  1  0  0  0  0
  1 13  1  0  0  0  0
 13 14  1  0  0  0  0
 13 15  2  0  0  0  0
 15 16  1  0  0  0  0
 15 17  1  0  0  0  0
 17 18  1  0  0  0  0
 17 19  2  0  0  0  0
 19 20  1  0  0  0  0
 19 21  1  0  0  0  0
 21  1  2  0  0  0  0
 21 22  1  0  0  0  0
M  END
> <ChemID>
102710

> <source_casrn>
41464-41-9

> <CAS>
41464-41-9

> <SMILES>
Clc1cc(-c2c(Cl)cccc2Cl)c(Cl)cc1

> <NAME>
2,2',5,6'-TETRACHLOROBIPHENYL

> <preferred_name>
2,2',5,6'-Tetrachlorobiphenyl

> <iupac>
1,4-dichloro-2-(2,6-dichlorophenyl)benzene

> <MPID>
27121

> <dsstox_substance_id>
DTXSID3073509

> <Canonical_QSARr>
Clc1cc(-c2c(Cl)cccc2Cl)c(Cl)cc1

> <InChI_Code_QSARr>
InChI=1S/C12H6Cl4/c13-7-4-5-9(14)8(6-7)12-10(15)2-1-3-11(12)16/h1-6H

> <InChI Key_QSARr>
SFTUSTXGTCCSHX-UHFFFAOYSA-N

> <Salt_Solvent>
?

> <LogVP>
-4.6478

$$$$
102714
  -INDIGO-08031723152D

 62 61  0  0  0  0  0  0  0  0999 V2000
    9.6994   -2.4000    0.0000 Cl  0  0  0  0  0  0  0  0  0  0  0  0
    9.6994   -0.8000    0.0000 C   0  0  0  0  0  0  0  0  0  0  0  0
   11.0851   -1.6000    0.0000 H   0  0  0  0  0  0  0  0  0  0  0  0
   11.0851    0.0000    0.0000 H   0  0  0  0  0  0  0  0  0  0  0  0
    8.3140    0.0000    0.0000 C   0  0  0  0  0  0  0  0  0  0  0  0
    8.9263    1.4782    0.0000 H   0  0  0  0  0  0  0  0  0  0  0  0
    7.7017    1.4782    0.0000 H   0  0  0  0  0  0  0  0  0  0  0  0
    6.9283   -0.8000    0.0000 C   0  0  0  0  0  0  0  0  0  0  0  0
    6.3160   -2.2782    0.0000 H   0  0  0  0  0  0  0  0  0  0  0  0
    7.5406   -2.2782    0.0000 H   0  0  0  0  0  0  0  0  0  0  0  0
    5.5425    0.0000    0.0000 C   0  0  0  0  0  0  0  0  0  0  0  0
    6.1548    1.4782    0.0000 H   0  0  0  0  0  0  0  0  0  0  0  0
    4.9302    1.4782    0.0000 H   0  0  0  0  0  0  0  0  0  0  0  0
    4.1567   -0.8000    0.0000 C   0  0  0  0  0  0  0  0  0  0  0  0
    3.5444   -2.2782    0.0000 H   0  0  0  0  0  0  0  0  0  0  0  0
    4.7690   -2.2782    0.0000 H   0  0  0  0  0  0  0  0  0  0  0  0
    2.7714    0.0000    0.0000 C   0  0  0  0  0  0  0  0  0  0  0  0
    3.3837    1.4782    0.0000 H   0  0  0  0  0  0  0  0  0  0  0  0
    2.1591    1.4782    0.0000 H   0  0  0  0  0  0  0  0  0  0  0  0
    1.3856   -0.8000    0.0000 C   0  0  0  0  0  0  0  0  0  0  0  0
    0.7733   -2.2782    0.0000 H   0  0  0  0  0  0  0  0  0  0  0  0
    1.9979   -2.2782    0.0000 H   0  0  0  0  0  0  0  0  0  0  0  0
   -0.0001    0.0000    0.0000 C   0  0  0  0  0  0  0  0  0  0  0  0
    0.6122    1.4782    0.0000 H   0  0  0  0  0  0  0  0  0  0  0  0
   -0.6124    1.4782    0.0000 H   0  0  0  0  0  0  0  0  0  0  0  0
   -1.3855   -0.8000    0.0000 C   0  0  0  0  0  0  0  0  0  0  0  0
   -1.9977   -2.2782    0.0000 H   0  0  0  0  0  0  0  0  0  0  0  0
   -0.7732   -2.2782    0.0000 H   0  0  0  0  0  0  0  0  0  0  0  0
   -2.7712    0.0000    0.0000 C   0  0  0  0  0  0  0  0  0  0  0  0
   -2.1589    1.4782    0.0000 H   0  0  0  0  0  0  0  0  0  0  0  0
   -3.3835    1.4782    0.0000 H   0  0  0  0  0  0  0  0  0  0  0  0
   -4.1570   -0.8000    0.0000 C   0  0  0  0  0  0  0  0  0  0  0  0
   -4.7693   -2.2782    0.0000 H   0  0  0  0  0  0  0  0  0  0  0  0
   -3.5447   -2.2782    0.0000 H   0  0  0  0  0  0  0  0  0  0  0  0
   -5.5428    0.0000    0.0000 C   0  0  0  0  0  0  0  0  0  0  0  0
   -4.9305    1.4782    0.0000 H   0  0  0  0  0  0  0  0  0  0  0  0
   -6.1550    1.4782    0.0000 H   0  0  0  0  0  0  0  0  0  0  0  0
   -6.9281   -0.8000    0.0000 C   0  0  0  0  0  0  0  0  0  0  0  0
   -7.5404   -2.2782    0.0000 H   0  0  0  0  0  0  0  0  0  0  0  0
   -6.3158   -2.2782    0.0000 H   0  0  0  0  0  0  0  0  0  0  0  0
   -8.3138    0.0000    0.0000 C   0  0  0  0  0  0  0  0  0  0  0  0
   -7.7015    1.4782    0.0000 H   0  0  0  0  0  0  0  0  0  0  0  0
   -8.9261    1.4782    0.0000 H   0  0  0  0  0  0  0  0  0  0  0  0
   -9.6996   -0.8000    0.0000 C   0  0  0  0  0  0  0  0  0  0  0  0
  -10.3119   -2.2782    0.0000 H   0  0  0  0  0  0  0  0  0  0  0  0
   -9.0873   -2.2782    0.0000 H   0  0  0  0  0  0  0  0  0  0  0  0
  -11.0849    0.0000    0.0000 C   0  0  0  0  0  0  0  0  0  0  0  0
  -10.4726    1.4782    0.0000 H   0  0  0  0  0  0  0  0  0  0  0  0
  -11.6972    1.4782    0.0000 H   0  0  0  0  0  0  0  0  0  0  0  0
  -12.4707   -0.8000    0.0000 C   0  0  0  0  0  0  0  0  0  0  0  0
  -13.0830   -2.2782    0.0000 H   0  0  0  0  0  0  0  0  0  0  0  0
  -11.8584   -2.2782    0.0000 H   0  0  0  0  0  0  0  0  0  0  0  0
  -13.8565    0.0000    0.0000 C   0  0  0  0  0  0  0  0  0  0  0  0
  -13.2442    1.4782    0.0000 H   0  0  0  0  0  0  0  0  0  0  0  0
  -14.4688    1.4782    0.0000 H   0  0  0  0  0  0  0  0  0  0  0  0
  -15.2422   -0.8000    0.0000 C   0  0  0  0  0  0  0  0  0  0  0  0
  -15.8545   -2.2782    0.0000 H   0  0  0  0  0  0  0  0  0  0  0  0
  -14.6299   -2.2782    0.0000 H   0  0  0  0  0  0  0  0  0  0  0  0
  -16.6276    0.0000    0.0000 C   0  0  0  0  0  0  0  0  0  0  0  0
  -18.0133    0.8000    0.0000 H   0  0  0  0  0  0  0  0  0  0  0  0
  -18.0133   -0.8000    0.0000 H   0  0  0  0  0  0  0  0  0  0  0  0
  -16.6276    1.6000    0.0000 H   0  0  0  0  0  0  0  0  0  0  0  0
  1  2  1  0  0  0  0
  2  3  1  0  0  0  0
  2  4  1  0  0  0  0
  2  5  1  0  0  0  0
  5  6  1  0  0  0  0
  5  7  1  0  0  0  0
  5  8  1  0  0  0  0
  8  9  1  0  0  0  0
  8 10  1  0  0  0  0
  8 11  1  0  0  0  0
 11 12  1  0  0  0  0
 11 13  1  0  0  0  0
 11 14  1  0  0  0  0
 14 15  1  0  0  0  0
 14 16  1  0  0  0  0
 14 17  1  0  0  0  0
 17 18  1  0  0  0  0
 17 19  1  0  0  0  0
 17 20  1  0  0  0  0
 20 21  1  0  0  0  0
 20 22  1  0  0  0  0
 20 23  1  0  0  0  0
 23 24  1  0  0  0  0
 23 25  1  0  0  0  0
 23 26  1  0  0  0  0
 26 27  1  0  0  0  0
 26 28  1  0  0  0  0
 26 29  1  0  0  0  0
 29 30  1  0  0  0  0
 29 31  1  0  0  0  0
 29 32  1  0  0  0  0
 32 33  1  0  0  0  0
 32 34  1  0  0  0  0
 32 35  1  0  0  0  0
 35 36  1  0  0  0  0
 35 37  1  0  0  0  0
 35 38  1  0  0  0  0
 38 39  1  0  0  0  0
 38 40  1  0  0  0  0
 38 41  1  0  0  0  0
 41 42  1  0  0  0  0
 41 43  1  0  0  0  0
 41 44  1  0  0  0  0
 44 45  1  0  0  0  0
 44 46  1  0  0  0  0
 44 47  1  0  0  0  0
 47 48  1  0  0  0  0
 47 49  1  0  0  0  0
 47 50  1  0  0  0  0
 50 51  1  0  0  0  0
 50 52  1  0  0  0  0
 50 53  1  0  0  0  0
 53 54  1  0  0  0  0
 53 55  1  0  0  0  0
 53 56  1  0  0  0  0
 56 57  1  0  0  0  0
 56 58  1  0  0  0  0
 56 59  1  0  0  0  0
 59 60  1  0  0  0  0
 59 61  1  0  0  0  0
 59 62  1  0  0  0  0
M  END
> <ChemID>
102714

> <source_casrn>
42217-02-7

> <CAS>
42217-02-7

> <SMILES>
CCCCCCCCCCCCCCCCCCCCCl

> <NAME>
1-CHLOROEICOSANE

> <preferred_name>
Chloroicosane

> <iupac>
1-chloroicosane

> <MPID>
27125

> <dsstox_substance_id>
DTXSID60195042

> <Canonical_QSARr>
CCCCCCCCCCCCCCCCCCCCCl

> <InChI_Code_QSARr>
InChI=1S/C20H41Cl/c1-2-3-4-5-6-7-8-9-10-11-12-13-14-15-16-17-18-19-20-21/h2-20H2,1H3

> <InChI Key_QSARr>
AFGNVSCTEXUEJE-UHFFFAOYSA-N

> <Salt_Solvent>
?

> <LogVP>
-5.6198

$$$$
102718
  -INDIGO-08031723152D

 40 41  0  0  0  0  0  0  0  0999 V2000
   10.2926   -0.6365    0.0000 C   0  0  0  0  0  0  0  0  0  0  0  0
   11.8683   -0.3586    0.0000 H   0  0  0  0  0  0  0  0  0  0  0  0
   11.3209   -1.8621    0.0000 H   0  0  0  0  0  0  0  0  0  0  0  0
   10.8397    0.8670    0.0000 H   0  0  0  0  0  0  0  0  0  0  0  0
    8.7170   -0.9143    0.0000 C   0  0  0  0  0  0  0  0  0  0  0  0
    7.6884    0.3113    0.0000 C   0  0  0  0  0  0  0  0  0  0  0  0
    8.2358    1.8148    0.0000 H   0  0  0  0  0  0  0  0  0  0  0  0
    6.1128    0.0335    0.0000 C   0  0  0  0  0  0  0  0  0  0  0  0
    5.0842    1.2592    0.0000 H   0  0  0  0  0  0  0  0  0  0  0  0
    5.5654   -1.4700    0.0000 C   0  0  0  0  0  0  0  0  0  0  0  0
    3.9898   -1.7479    0.0000 N   0  0  0  0  0  0  0  0  0  0  0  0
    3.4424   -3.2514    0.0000 H   0  0  0  0  0  0  0  0  0  0  0  0
    2.9612   -0.5221    0.0000 C   0  0  0  0  0  0  0  0  0  0  0  0
    1.3856   -0.8000    0.0000 N   0  0  0  0  0  0  0  0  0  0  0  0
   -0.0001   -0.0000    0.0000 C   0  0  0  0  0  0  0  0  0  0  0  0
    0.8001    1.3856    0.0000 C   0  0  0  0  0  0  0  0  0  0  0  0
    1.8284    2.6114    0.0000 H   0  0  0  0  0  0  0  0  0  0  0  0
    2.3757    1.1079    0.0000 H   0  0  0  0  0  0  0  0  0  0  0  0
    0.2527    2.8891    0.0000 H   0  0  0  0  0  0  0  0  0  0  0  0
   -1.3857    0.8000    0.0000 C   0  0  0  0  0  0  0  0  0  0  0  0
   -2.8891    1.3473    0.0000 H   0  0  0  0  0  0  0  0  0  0  0  0
   -1.6635    2.3757    0.0000 H   0  0  0  0  0  0  0  0  0  0  0  0
   -0.1601    1.8285    0.0000 H   0  0  0  0  0  0  0  0  0  0  0  0
   -0.8000   -1.3857    0.0000 C   0  0  0  0  0  0  0  0  0  0  0  0
   -2.4000   -1.3857    0.0000 C   0  0  0  0  0  0  0  0  0  0  0  0
   -3.1999   -0.0000    0.0000 H   0  0  0  0  0  0  0  0  0  0  0  0
   -3.1999   -2.7712    0.0000 C   0  0  0  0  0  0  0  0  0  0  0  0
   -4.8000   -2.7712    0.0000 H   0  0  0  0  0  0  0  0  0  0  0  0
   -2.4000   -4.1569    0.0000 C   0  0  0  0  0  0  0  0  0  0  0  0
   -3.1999   -5.5426    0.0000 H   0  0  0  0  0  0  0  0  0  0  0  0
   -0.8000   -4.1569    0.0000 C   0  0  0  0  0  0  0  0  0  0  0  0
   -0.0001   -5.5426    0.0000 H   0  0  0  0  0  0  0  0  0  0  0  0
   -0.0001   -2.7712    0.0000 C   0  0  0  0  0  0  0  0  0  0  0  0
    1.6000   -2.7712    0.0000 H   0  0  0  0  0  0  0  0  0  0  0  0
    3.7614    0.8635    0.0000 O   0  0  0  0  0  0  0  0  0  0  0  0
    2.9612    2.2491    0.0000 H   0  0  0  0  0  0  0  0  0  0  0  0
    6.5940   -2.6957    0.0000 C   0  0  0  0  0  0  0  0  0  0  0  0
    6.0466   -4.1992    0.0000 H   0  0  0  0  0  0  0  0  0  0  0  0
    8.1696   -2.4178    0.0000 C   0  0  0  0  0  0  0  0  0  0  0  0
    9.1982   -3.6435    0.0000 H   0  0  0  0  0  0  0  0  0  0  0  0
  1  2  1  0  0  0  0
  1  3  1  0  0  0  0
  1  4  1  0  0  0  0
  1  5  1  0  0  0  0
  5  6  1  0  0  0  0
  6  7  1  0  0  0  0
  6  8  2  0  0  0  0
  8  9  1  0  0  0  0
  8 10  1  0  0  0  0
 10 11  1  0  0  0  0
 11 12  1  0  0  0  0
 11 13  1  0  0  0  0
 13 14  2  0  0  0  0
 14 15  1  0  0  0  0
 15 16  1  0  0  0  0
 16 17  1  0  0  0  0
 16 18  1  0  0  0  0
 16 19  1  0  0  0  0
 15 20  1  0  0  0  0
 20 21  1  0  0  0  0
 20 22  1  0  0  0  0
 20 23  1  0  0  0  0
 15 24  1  0  0  0  0
 24 25  1  0  0  0  0
 25 26  1  0  0  0  0
 25 27  2  0  0  0  0
 27 28  1  0  0  0  0
 27 29  1  0  0  0  0
 29 30  1  0  0  0  0
 29 31  2  0  0  0  0
 31 32  1  0  0  0  0
 31 33  1  0  0  0  0
 33 24  2  0  0  0  0
 33 34  1  0  0  0  0
 13 35  1  0  0  0  0
 35 36  1  0  0  0  0
 10 37  2  0  0  0  0
 37 38  1  0  0  0  0
 37 39  1  0  0  0  0
 39  5  2  0  0  0  0
 39 40  1  0  0  0  0
M  END
> <ChemID>
102718

> <source_casrn>
42609-52-9

> <CAS>
42609-52-9

> <SMILES>
Cc1ccc(cc1)NC(O)=NC(C)(C)c1ccccc1

> <NAME>
Daimuron

> <preferred_name>
Daimuron

> <iupac>
1-(4-methylphenyl)-3-(2-phenylpropan-2-yl)urea

> <MPID>
27129

> <dsstox_substance_id>
DTXSID2058099

> <Canonical_QSARr>
Cc1ccc(cc1)NC(O)=NC(C)(C)c1ccccc1

> <InChI_Code_QSARr>
InChI=1S/C17H20N2O/c1-13-9-11-15(12-10-13)18-16(20)19-17(2,3)14-7-5-4-6-8-14/h4-12H,1-3H3,(H2,18,19,20)

> <InChI Key_QSARr>
NNYRZQHKCHEXSD-UHFFFAOYSA-N

> <Salt_Solvent>
?

> <LogVP>
-8.4698

$$$$
102722
  -INDIGO-08031723152D

 27 28  0  0  0  0  0  0  0  0999 V2000
    2.5747    0.2706    0.0000 N   0  0  0  0  0  0  0  0  0  0  0  0
    2.2420   -1.2944    0.0000 C   0  0  0  0  0  0  0  0  0  0  0  0
    3.3127   -2.4835    0.0000 O   0  0  0  0  0  0  0  0  0  0  0  0
    0.6508   -1.4617    0.0000 O   0  0  0  0  0  0  0  0  0  0  0  0
   -0.0001    0.0000    0.0000 C   0  0  0  0  0  0  0  0  0  0  0  0
   -0.9405    1.2945    0.0000 C   0  0  0  0  0  0  0  0  0  0  0  0
   -0.2896    2.7561    0.0000 H   0  0  0  0  0  0  0  0  0  0  0  0
   -2.4929    1.6815    0.0000 C   0  0  0  0  0  0  0  0  0  0  0  0
   -3.6044    0.5305    0.0000 H   0  0  0  0  0  0  0  0  0  0  0  0
   -2.9339    3.2195    0.0000 H   0  0  0  0  0  0  0  0  0  0  0  0
   -1.3857   -0.8000    0.0000 C   0  0  0  0  0  0  0  0  0  0  0  0
   -2.7713   -1.6000    0.0000 H   0  0  0  0  0  0  0  0  0  0  0  0
   -2.7713    0.0000    0.0000 H   0  0  0  0  0  0  0  0  0  0  0  0
   -1.3857   -2.4000    0.0000 H   0  0  0  0  0  0  0  0  0  0  0  0
    1.1890    1.0706    0.0000 C   0  0  0  0  0  0  0  0  0  0  0  0
    1.0219    2.6618    0.0000 O   0  0  0  0  0  0  0  0  0  0  0  0
    4.0364    0.9214    0.0000 C   0  0  0  0  0  0  0  0  0  0  0  0
    4.2036    2.5126    0.0000 C   0  0  0  0  0  0  0  0  0  0  0  0
    2.9092    3.4530    0.0000 H   0  0  0  0  0  0  0  0  0  0  0  0
    5.6652    3.1634    0.0000 C   0  0  0  0  0  0  0  0  0  0  0  0
    5.8325    4.7546    0.0000 Cl  0  0  0  0  0  0  0  0  0  0  0  0
    6.9598    2.2230    0.0000 C   0  0  0  0  0  0  0  0  0  0  0  0
    8.4214    2.8737    0.0000 H   0  0  0  0  0  0  0  0  0  0  0  0
    6.7924    0.6317    0.0000 C   0  0  0  0  0  0  0  0  0  0  0  0
    8.0868   -0.3088    0.0000 Cl  0  0  0  0  0  0  0  0  0  0  0  0
    5.3308   -0.0191    0.0000 C   0  0  0  0  0  0  0  0  0  0  0  0
    5.1635   -1.6103    0.0000 H   0  0  0  0  0  0  0  0  0  0  0  0
  1  2  1  0  0  0  0
  2  3  2  0  0  0  0
  2  4  1  0  0  0  0
  4  5  1  0  0  0  0
  5  6  1  0  0  0  0
  6  7  1  0  0  0  0
  6  8  2  0  0  0  0
  8  9  1  0  0  0  0
  8 10  1  0  0  0  0
  5 11  1  0  0  0  0
 11 12  1  0  0  0  0
 11 13  1  0  0  0  0
 11 14  1  0  0  0  0
  5 15  1  0  0  0  0
 15  1  1  0  0  0  0
 15 16  2  0  0  0  0
  1 17  1  0  0  0  0
 17 18  1  0  0  0  0
 18 19  1  0  0  0  0
 18 20  2  0  0  0  0
 20 21  1  0  0  0  0
 20 22  1  0  0  0  0
 22 23  1  0  0  0  0
 22 24  2  0  0  0  0
 24 25  1  0  0  0  0
 24 26  1  0  0  0  0
 26 17  2  0  0  0  0
 26 27  1  0  0  0  0
M  END
> <ChemID>
102722

> <source_casrn>
50471-44-8

> <CAS>
50471-44-8

> <SMILES>
CC1(C=C)OC(=O)N(c2cc(Cl)cc(Cl)c2)C1=O

> <NAME>
VINCLOZOLIN

> <preferred_name>
Vinclozolin

> <iupac>
3-(3,5-dichlorophenyl)-5-ethenyl-5-methyl-1,3-oxazolidine-2,4-dione

> <MPID>
27133

> <dsstox_substance_id>
DTXSID4022361

> <Canonical_QSARr>
CC1(C=C)OC(=O)N(c2cc(Cl)cc(Cl)c2)C1=O

> <InChI_Code_QSARr>
InChI=1S/C12H9Cl2NO3/c1-3-12(2)10(16)15(11(17)18-12)9-5-7(13)4-8(14)6-9/h3-6H,1H2,2H3

> <InChI Key_QSARr>
FSCWZHGZWWDELK-UHFFFAOYSA-N

> <Salt_Solvent>
?

> <LogVP>
-6.9208

$$$$
102726
  -INDIGO-08031723152D

 22 24  0  0  0  0  0  0  0  0999 V2000
   -4.1569   -2.4000    0.0000 Br  0  0  0  0  0  0  0  0  0  0  0  0
   -2.7713   -1.6000    0.0000 C   0  0  0  0  0  0  0  0  0  0  0  0
   -1.3856   -2.4000    0.0000 C   0  0  0  0  0  0  0  0  0  0  0  0
   -1.3856   -4.0000    0.0000 H   0  0  0  0  0  0  0  0  0  0  0  0
    0.0001   -1.6000    0.0000 C   0  0  0  0  0  0  0  0  0  0  0  0
    1.3857   -2.4000    0.0000 O   0  0  0  0  0  0  0  0  0  0  0  0
    2.7712   -1.6000    0.0000 C   0  0  0  0  0  0  0  0  0  0  0  0
    2.7712   -0.0000    0.0000 C   0  0  0  0  0  0  0  0  0  0  0  0
    1.3857    0.8000    0.0000 O   0  0  0  0  0  0  0  0  0  0  0  0
    0.0001   -0.0000    0.0000 C   0  0  0  0  0  0  0  0  0  0  0  0
   -1.3856    0.8000    0.0000 C   0  0  0  0  0  0  0  0  0  0  0  0
   -1.3856    2.4000    0.0000 H   0  0  0  0  0  0  0  0  0  0  0  0
   -2.7713   -0.0000    0.0000 C   0  0  0  0  0  0  0  0  0  0  0  0
   -4.1569    0.8000    0.0000 Br  0  0  0  0  0  0  0  0  0  0  0  0
    4.1569    0.8000    0.0000 C   0  0  0  0  0  0  0  0  0  0  0  0
    4.1569    2.4000    0.0000 H   0  0  0  0  0  0  0  0  0  0  0  0
    5.5425   -0.0000    0.0000 C   0  0  0  0  0  0  0  0  0  0  0  0
    6.9282    0.8000    0.0000 Cl  0  0  0  0  0  0  0  0  0  0  0  0
    5.5425   -1.6000    0.0000 C   0  0  0  0  0  0  0  0  0  0  0  0
    6.9282   -2.4000    0.0000 Cl  0  0  0  0  0  0  0  0  0  0  0  0
    4.1569   -2.4000    0.0000 C   0  0  0  0  0  0  0  0  0  0  0  0
    4.1569   -4.0000    0.0000 H   0  0  0  0  0  0  0  0  0  0  0  0
  1  2  1  0  0  0  0
  2  3  1  0  0  0  0
  3  4  1  0  0  0  0
  3  5  2  0  0  0  0
  5  6  1  0  0  0  0
  6  7  1  0  0  0  0
  7  8  1  0  0  0  0
  8  9  1  0  0  0  0
  9 10  1  0  0  0  0
 10  5  1  0  0  0  0
 10 11  2  0  0  0  0
 11 12  1  0  0  0  0
 11 13  1  0  0  0  0
 13  2  2  0  0  0  0
 13 14  1  0  0  0  0
  8 15  2  0  0  0  0
 15 16  1  0  0  0  0
 15 17  1  0  0  0  0
 17 18  1  0  0  0  0
 17 19  2  0  0  0  0
 19 20  1  0  0  0  0
 19 21  1  0  0  0  0
 21  7  2  0  0  0  0
 21 22  1  0  0  0  0
M  END
> <ChemID>
102726

> <source_casrn>
50585-40-5

> <CAS>
50585-40-5

> <SMILES>
Clc1cc2Oc3cc(Br)c(Br)cc3Oc2cc1Cl

> <NAME>
2,3-DIBROMO-7,8-DICHLORODIBENZO-P-DIOXIN

> <preferred_name>
Dibenzo(b,e)(1,4)dioxin, 2,3-dibromo-7,8-dichloro-

> <iupac>
2,3-dibromo-7,8-dichlorooxanthrene

> <MPID>
27137

> <dsstox_substance_id>
DTXSID10198604

> <Canonical_QSARr>
Clc1cc2Oc3cc(Br)c(Br)cc3Oc2cc1Cl

> <InChI_Code_QSARr>
InChI=1S/C12H4Br2Cl2O2/c13-5-1-9-10(2-6(5)14)18-12-4-8(16)7(15)3-11(12)17-9/h1-4H

> <InChI Key_QSARr>
SBSJXPIUKNBZND-UHFFFAOYSA-N

> <Salt_Solvent>
?

> <LogVP>
-8.3325

$$$$
102730
  -INDIGO-08031723152D

 22 24  0  0  0  0  0  0  0  0999 V2000
   -1.3856    0.8000    0.0000 O   0  0  0  0  0  0  0  0  0  0  0  0
   -2.7712   -0.0000    0.0000 C   0  0  0  0  0  0  0  0  0  0  0  0
   -2.7712   -1.6000    0.0000 C   0  0  0  0  0  0  0  0  0  0  0  0
   -4.1569   -2.4000    0.0000 C   0  0  0  0  0  0  0  0  0  0  0  0
   -4.1569   -4.0000    0.0000 H   0  0  0  0  0  0  0  0  0  0  0  0
   -5.5425   -1.6000    0.0000 C   0  0  0  0  0  0  0  0  0  0  0  0
   -5.5425   -0.0000    0.0000 C   0  0  0  0  0  0  0  0  0  0  0  0
   -4.1569    0.8000    0.0000 C   0  0  0  0  0  0  0  0  0  0  0  0
   -4.1569    2.4000    0.0000 H   0  0  0  0  0  0  0  0  0  0  0  0
   -6.9282    0.8000    0.0000 Cl  0  0  0  0  0  0  0  0  0  0  0  0
   -6.9282   -2.4000    0.0000 Cl  0  0  0  0  0  0  0  0  0  0  0  0
   -1.3856   -2.4000    0.0000 O   0  0  0  0  0  0  0  0  0  0  0  0
   -0.0001   -1.6000    0.0000 C   0  0  0  0  0  0  0  0  0  0  0  0
   -0.0001   -0.0000    0.0000 C   0  0  0  0  0  0  0  0  0  0  0  0
    1.3856    0.8000    0.0000 C   0  0  0  0  0  0  0  0  0  0  0  0
    2.7713   -0.0000    0.0000 C   0  0  0  0  0  0  0  0  0  0  0  0
    4.1569    0.8000    0.0000 H   0  0  0  0  0  0  0  0  0  0  0  0
    2.7713   -1.6000    0.0000 C   0  0  0  0  0  0  0  0  0  0  0  0
    1.3856   -2.4000    0.0000 C   0  0  0  0  0  0  0  0  0  0  0  0
    1.3856   -4.0000    0.0000 H   0  0  0  0  0  0  0  0  0  0  0  0
    4.1569   -2.4000    0.0000 Cl  0  0  0  0  0  0  0  0  0  0  0  0
    1.3856    2.4000    0.0000 Cl  0  0  0  0  0  0  0  0  0  0  0  0
  1  2  1  0  0  0  0
  2  3  1  0  0  0  0
  3  4  2  0  0  0  0
  4  5  1  0  0  0  0
  4  6  1  0  0  0  0
  6  7  2  0  0  0  0
  7  8  1  0  0  0  0
  8  2  2  0  0  0  0
  8  9  1  0  0  0  0
  7 10  1  0  0  0  0
  6 11  1  0  0  0  0
  3 12  1  0  0  0  0
 12 13  1  0  0  0  0
 13 14  1  0  0  0  0
 14  1  1  0  0  0  0
 14 15  2  0  0  0  0
 15 16  1  0  0  0  0
 16 17  1  0  0  0  0
 16 18  2  0  0  0  0
 18 19  1  0  0  0  0
 19 13  2  0  0  0  0
 19 20  1  0  0  0  0
 18 21  1  0  0  0  0
 15 22  1  0  0  0  0
M  END
> <ChemID>
102730

> <source_casrn>
50585-46-1

> <CAS>
NOCAS_872030

> <SMILES>
Clc1cc2Oc3cc(Cl)c(Cl)cc3Oc2c(Cl)c1

> <NAME>
1,3,7,8-TETRACHLORODIBENZO-P-DIOXIN

> <preferred_name>


> <iupac>


> <MPID>
27141

> <dsstox_substance_id>
DTXSID30872030

> <Canonical_QSARr>
Clc1cc2Oc3cc(Cl)c(Cl)cc3Oc2c(Cl)c1

> <InChI_Code_QSARr>
InChI=1S/C12H4Cl4O2/c13-5-1-8(16)12-11(2-5)17-9-3-6(14)7(15)4-10(9)18-12/h1-4H

> <InChI Key_QSARr>
VPTDIAYLYJBYQG-UHFFFAOYSA-N

> <Salt_Solvent>
?

> <LogVP>
-8.2007

$$$$
102734
  -INDIGO-08031723152D

 41 41  0  0  0  0  0  0  0  0999 V2000
   -1.3856    0.8001    0.0000 N   0  0  0  0  0  0  0  0  0  0  0  0
   -2.7713    0.0000    0.0000 C   0  0  0  0  0  0  0  0  0  0  0  0
   -2.7713   -1.6000    0.0000 C   0  0  0  0  0  0  0  0  0  0  0  0
   -1.5456   -2.6284    0.0000 C   0  0  0  0  0  0  0  0  0  0  0  0
   -0.3199   -3.6569    0.0000 H   0  0  0  0  0  0  0  0  0  0  0  0
   -1.8235   -4.2042    0.0000 H   0  0  0  0  0  0  0  0  0  0  0  0
   -0.0421   -2.0812    0.0000 H   0  0  0  0  0  0  0  0  0  0  0  0
   -4.1570   -2.4000    0.0000 C   0  0  0  0  0  0  0  0  0  0  0  0
   -4.1570   -4.0000    0.0000 H   0  0  0  0  0  0  0  0  0  0  0  0
   -5.5425   -1.6000    0.0000 C   0  0  0  0  0  0  0  0  0  0  0  0
   -6.9282   -2.4000    0.0000 H   0  0  0  0  0  0  0  0  0  0  0  0
   -5.5425    0.0000    0.0000 C   0  0  0  0  0  0  0  0  0  0  0  0
   -6.9282    0.8001    0.0000 H   0  0  0  0  0  0  0  0  0  0  0  0
   -4.1570    0.8001    0.0000 C   0  0  0  0  0  0  0  0  0  0  0  0
   -4.1570    2.4000    0.0000 C   0  0  0  0  0  0  0  0  0  0  0  0
   -2.5948    2.0537    0.0000 H   0  0  0  0  0  0  0  0  0  0  0  0
   -3.6758    3.9260    0.0000 H   0  0  0  0  0  0  0  0  0  0  0  0
   -5.5425    3.1999    0.0000 C   0  0  0  0  0  0  0  0  0  0  0  0
   -6.9282    4.0000    0.0000 H   0  0  0  0  0  0  0  0  0  0  0  0
   -5.5425    4.8000    0.0000 H   0  0  0  0  0  0  0  0  0  0  0  0
   -6.9282    2.4000    0.0000 H   0  0  0  0  0  0  0  0  0  0  0  0
   -1.6635    2.3756    0.0000 C   0  0  0  0  0  0  0  0  0  0  0  0
   -3.1670    2.9229    0.0000 O   0  0  0  0  0  0  0  0  0  0  0  0
   -0.4378    3.4041    0.0000 C   0  0  0  0  0  0  0  0  0  0  0  0
   -0.7156    4.9798    0.0000 H   0  0  0  0  0  0  0  0  0  0  0  0
    0.7879    4.4326    0.0000 H   0  0  0  0  0  0  0  0  0  0  0  0
   -1.9413    3.9514    0.0000 Cl  0  0  0  0  0  0  0  0  0  0  0  0
    0.0001    0.0000    0.0000 C   0  0  0  0  0  0  0  0  0  0  0  0
   -0.8000   -1.3857    0.0000 H   0  0  0  0  0  0  0  0  0  0  0  0
    0.8000    1.3857    0.0000 C   0  0  0  0  0  0  0  0  0  0  0  0
    0.5912    2.9719    0.0000 H   0  0  0  0  0  0  0  0  0  0  0  0
   -0.4693    2.3597    0.0000 H   0  0  0  0  0  0  0  0  0  0  0  0
    2.4000    1.3857    0.0000 O   0  0  0  0  0  0  0  0  0  0  0  0
    3.2001    2.7713    0.0000 C   0  0  0  0  0  0  0  0  0  0  0  0
    4.8000    2.7713    0.0000 H   0  0  0  0  0  0  0  0  0  0  0  0
    4.0000    4.1569    0.0000 H   0  0  0  0  0  0  0  0  0  0  0  0
    4.0000    1.3857    0.0000 H   0  0  0  0  0  0  0  0  0  0  0  0
    1.3856   -0.8000    0.0000 C   0  0  0  0  0  0  0  0  0  0  0  0
    2.7713   -1.6000    0.0000 H   0  0  0  0  0  0  0  0  0  0  0  0
    2.7713    0.0000    0.0000 H   0  0  0  0  0  0  0  0  0  0  0  0
    1.3856   -2.4000    0.0000 H   0  0  0  0  0  0  0  0  0  0  0  0
  1  2  1  0  0  0  0
  2  3  1  0  0  0  0
  3  4  1  0  0  0  0
  4  5  1  0  0  0  0
  4  6  1  0  0  0  0
  4  7  1  0  0  0  0
  3  8  2  0  0  0  0
  8  9  1  0  0  0  0
  8 10  1  0  0  0  0
 10 11  1  0  0  0  0
 10 12  2  0  0  0  0
 12 13  1  0  0  0  0
 12 14  1  0  0  0  0
 14  2  2  0  0  0  0
 14 15  1  0  0  0  0
 15 16  1  0  0  0  0
 15 17  1  0  0  0  0
 15 18  1  0  0  0  0
 18 19  1  0  0  0  0
 18 20  1  0  0  0  0
 18 21  1  0  0  0  0
  1 22  1  0  0  0  0
 22 23  2  0  0  0  0
 22 24  1  0  0  0  0
 24 25  1  0  0  0  0
 24 26  1  0  0  0  0
 24 27  1  0  0  0  0
  1 28  1  0  0  0  0
 28 29  1  0  0  0  0
 28 30  1  0  0  0  0
 30 31  1  0  0  0  0
 30 32  1  0  0  0  0
 30 33  1  0  0  0  0
 33 34  1  0  0  0  0
 34 35  1  0  0  0  0
 34 36  1  0  0  0  0
 34 37  1  0  0  0  0
 28 38  1  0  0  0  0
 38 39  1  0  0  0  0
 38 40  1  0  0  0  0
 38 41  1  0  0  0  0
M  END
> <ChemID>
102734

> <source_casrn>
51218-45-2

> <CAS>
51218-45-2

> <SMILES>
Cc1cccc(CC)c1N(C(C)COC)C(=O)CCl

> <NAME>
METOLACHLOR

> <preferred_name>
Metolachlor

> <iupac>
2-chloro-N-(2-ethyl-6-methylphenyl)-N-(1-methoxypropan-2-yl)acetamide

> <MPID>
27145

> <dsstox_substance_id>
DTXSID4022448

> <Canonical_QSARr>
Cc1cccc(CC)c1N(C(C)COC)C(=O)CCl

> <InChI_Code_QSARr>
InChI=1S/C15H22ClNO2/c1-5-13-8-6-7-11(2)15(13)17(14(18)9-16)12(3)10-19-4/h6-8,12H,5,9-10H2,1-4H3

> <InChI Key_QSARr>
WVQBLGZPHOPPFO-UHFFFAOYSA-N

> <Salt_Solvent>
?

> <LogVP>
-4.5038

$$$$
102738
  -INDIGO-08031723152D

 36 37  0  0  0  0  0  0  0  0999 V2000
  -10.2069   -0.2912    0.0000 Cl  0  0  0  0  0  0  0  0  0  0  0  0
   -9.9291   -1.8668    0.0000 C   0  0  0  0  0  0  0  0  0  0  0  0
   -8.4257   -2.4141    0.0000 C   0  0  0  0  0  0  0  0  0  0  0  0
   -7.2000   -1.3857    0.0000 O   0  0  0  0  0  0  0  0  0  0  0  0
   -5.6000   -1.3857    0.0000 C   0  0  0  0  0  0  0  0  0  0  0  0
   -4.7999   -0.0001    0.0000 C   0  0  0  0  0  0  0  0  0  0  0  0
   -5.6000    1.3857    0.0000 H   0  0  0  0  0  0  0  0  0  0  0  0
   -3.1999   -0.0001    0.0000 C   0  0  0  0  0  0  0  0  0  0  0  0
   -2.4001    1.3857    0.0000 H   0  0  0  0  0  0  0  0  0  0  0  0
   -2.4001   -1.3857    0.0000 C   0  0  0  0  0  0  0  0  0  0  0  0
   -0.8000   -1.3857    0.0000 O   0  0  0  0  0  0  0  0  0  0  0  0
    0.0000   -0.0001    0.0000 C   0  0  0  0  0  0  0  0  0  0  0  0
   -1.3856    0.8001    0.0000 H   0  0  0  0  0  0  0  0  0  0  0  0
    1.3855   -0.8000    0.0000 C   0  0  0  0  0  0  0  0  0  0  0  0
    2.7714   -0.0001    0.0000 O   0  0  0  0  0  0  0  0  0  0  0  0
    1.3855   -2.4000    0.0000 O   0  0  0  0  0  0  0  0  0  0  0  0
    2.7714   -3.2000    0.0000 C   0  0  0  0  0  0  0  0  0  0  0  0
    4.1569   -3.9999    0.0000 H   0  0  0  0  0  0  0  0  0  0  0  0
    2.7714   -4.8001    0.0000 H   0  0  0  0  0  0  0  0  0  0  0  0
    4.1569   -2.4000    0.0000 H   0  0  0  0  0  0  0  0  0  0  0  0
    0.8000    1.3857    0.0000 C   0  0  0  0  0  0  0  0  0  0  0  0
    1.6001    2.7713    0.0000 H   0  0  0  0  0  0  0  0  0  0  0  0
    2.4001    1.3857    0.0000 H   0  0  0  0  0  0  0  0  0  0  0  0
    0.0000    2.7713    0.0000 H   0  0  0  0  0  0  0  0  0  0  0  0
   -3.1999   -2.7713    0.0000 C   0  0  0  0  0  0  0  0  0  0  0  0
   -2.4001   -4.1569    0.0000 H   0  0  0  0  0  0  0  0  0  0  0  0
   -4.7999   -2.7713    0.0000 C   0  0  0  0  0  0  0  0  0  0  0  0
   -5.6000   -4.1569    0.0000 H   0  0  0  0  0  0  0  0  0  0  0  0
   -8.1479   -3.9898    0.0000 C   0  0  0  0  0  0  0  0  0  0  0  0
   -6.6443   -4.5370    0.0000 H   0  0  0  0  0  0  0  0  0  0  0  0
   -9.3736   -5.0183    0.0000 C   0  0  0  0  0  0  0  0  0  0  0  0
   -9.0957   -6.5939    0.0000 H   0  0  0  0  0  0  0  0  0  0  0  0
  -10.8769   -4.4710    0.0000 C   0  0  0  0  0  0  0  0  0  0  0  0
  -12.1026   -5.4994    0.0000 Cl  0  0  0  0  0  0  0  0  0  0  0  0
  -11.1548   -2.8953    0.0000 C   0  0  0  0  0  0  0  0  0  0  0  0
  -12.6584   -2.3481    0.0000 H   0  0  0  0  0  0  0  0  0  0  0  0
  1  2  1  0  0  0  0
  2  3  1  0  0  0  0
  3  4  1  0  0  0  0
  4  5  1  0  0  0  0
  5  6  1  0  0  0  0
  6  7  1  0  0  0  0
  6  8  2  0  0  0  0
  8  9  1  0  0  0  0
  8 10  1  0  0  0  0
 10 11  1  0  0  0  0
 11 12  1  0  0  0  0
 12 13  1  0  0  0  0
 12 14  1  0  0  0  0
 14 15  2  0  0  0  0
 14 16  1  0  0  0  0
 16 17  1  0  0  0  0
 17 18  1  0  0  0  0
 17 19  1  0  0  0  0
 17 20  1  0  0  0  0
 12 21  1  0  0  0  0
 21 22  1  0  0  0  0
 21 23  1  0  0  0  0
 21 24  1  0  0  0  0
 10 25  2  0  0  0  0
 25 26  1  0  0  0  0
 25 27  1  0  0  0  0
 27  5  2  0  0  0  0
 27 28  1  0  0  0  0
  3 29  2  0  0  0  0
 29 30  1  0  0  0  0
 29 31  1  0  0  0  0
 31 32  1  0  0  0  0
 31 33  2  0  0  0  0
 33 34  1  0  0  0  0
 33 35  1  0  0  0  0
 35  2  2  0  0  0  0
 35 36  1  0  0  0  0
M  END
> <ChemID>
102738

> <source_casrn>
51338-27-3

> <CAS>
51338-27-3

> <SMILES>
COC(=O)C(C)Oc1ccc(cc1)Oc1ccc(Cl)cc1Cl

> <NAME>
DICLOFOP-METHYL

> <preferred_name>
Diclofop-methyl

> <iupac>
methyl 2-[4-(2,4-dichlorophenoxy)phenoxy]propanoate

> <MPID>
27149

> <dsstox_substance_id>
DTXSID0032605

> <Canonical_QSARr>
COC(=O)C(C)Oc1ccc(cc1)Oc1ccc(Cl)cc1Cl

> <InChI_Code_QSARr>
InChI=1S/C16H14Cl2O4/c1-10(16(19)20-2)21-12-4-6-13(7-5-12)22-15-8-3-11(17)9-14(15)18/h3-10H,1-2H3

> <InChI Key_QSARr>
BACHBFVBHLGWSL-UHFFFAOYSA-N

> <Salt_Solvent>
?

> <LogVP>
-5.4559

$$$$
102742
  -INDIGO-08031723152D

 30 32  0  0  0  0  0  0  0  0999 V2000
    0.0001   -0.0000    0.0000 C   0  0  0  0  0  0  0  0  0  0  0  0
    1.3856    0.8000    0.0000 C   0  0  0  0  0  0  0  0  0  0  0  0
    1.3856    2.4000    0.0000 H   0  0  0  0  0  0  0  0  0  0  0  0
    2.7714   -0.0000    0.0000 C   0  0  0  0  0  0  0  0  0  0  0  0
    2.7714   -1.6000    0.0000 C   0  0  0  0  0  0  0  0  0  0  0  0
    4.1569   -2.4000    0.0000 C   0  0  0  0  0  0  0  0  0  0  0  0
    4.1569   -4.0000    0.0000 H   0  0  0  0  0  0  0  0  0  0  0  0
    5.5427   -1.6000    0.0000 C   0  0  0  0  0  0  0  0  0  0  0  0
    6.9282   -2.4000    0.0000 H   0  0  0  0  0  0  0  0  0  0  0  0
    5.5427   -0.0000    0.0000 C   0  0  0  0  0  0  0  0  0  0  0  0
    6.9282    0.8000    0.0000 H   0  0  0  0  0  0  0  0  0  0  0  0
    4.1569    0.8000    0.0000 C   0  0  0  0  0  0  0  0  0  0  0  0
    4.1569    2.4000    0.0000 H   0  0  0  0  0  0  0  0  0  0  0  0
    1.3856   -2.4000    0.0000 C   0  0  0  0  0  0  0  0  0  0  0  0
    1.3856   -4.0000    0.0000 H   0  0  0  0  0  0  0  0  0  0  0  0
    0.0001   -1.6000    0.0000 C   0  0  0  0  0  0  0  0  0  0  0  0
   -1.3856   -2.4000    0.0000 C   0  0  0  0  0  0  0  0  0  0  0  0
   -1.3856   -4.0000    0.0000 H   0  0  0  0  0  0  0  0  0  0  0  0
   -2.7714   -1.6000    0.0000 C   0  0  0  0  0  0  0  0  0  0  0  0
   -4.1569   -2.4000    0.0000 H   0  0  0  0  0  0  0  0  0  0  0  0
   -2.7714   -0.0000    0.0000 C   0  0  0  0  0  0  0  0  0  0  0  0
   -4.1569    0.8000    0.0000 C   0  0  0  0  0  0  0  0  0  0  0  0
   -3.5446    2.2782    0.0000 H   0  0  0  0  0  0  0  0  0  0  0  0
   -4.7692    2.2782    0.0000 H   0  0  0  0  0  0  0  0  0  0  0  0
   -5.5425   -0.0000    0.0000 C   0  0  0  0  0  0  0  0  0  0  0  0
   -6.9282    0.8000    0.0000 H   0  0  0  0  0  0  0  0  0  0  0  0
   -6.9282   -0.8000    0.0000 H   0  0  0  0  0  0  0  0  0  0  0  0
   -5.5425    1.6000    0.0000 H   0  0  0  0  0  0  0  0  0  0  0  0
   -1.3856    0.8000    0.0000 C   0  0  0  0  0  0  0  0  0  0  0  0
   -1.3856    2.4000    0.0000 H   0  0  0  0  0  0  0  0  0  0  0  0
  1  2  1  0  0  0  0
  2  3  1  0  0  0  0
  2  4  2  0  0  0  0
  4  5  1  0  0  0  0
  5  6  1  0  0  0  0
  6  7  1  0  0  0  0
  6  8  2  0  0  0  0
  8  9  1  0  0  0  0
  8 10  1  0  0  0  0
 10 11  1  0  0  0  0
 10 12  2  0  0  0  0
 12  4  1  0  0  0  0
 12 13  1  0  0  0  0
  5 14  2  0  0  0  0
 14 15  1  0  0  0  0
 14 16  1  0  0  0  0
 16  1  1  0  0  0  0
 16 17  2  0  0  0  0
 17 18  1  0  0  0  0
 17 19  1  0  0  0  0
 19 20  1  0  0  0  0
 19 21  2  0  0  0  0
 21 22  1  0  0  0  0
 22 23  1  0  0  0  0
 22 24  1  0  0  0  0
 22 25  1  0  0  0  0
 25 26  1  0  0  0  0
 25 27  1  0  0  0  0
 25 28  1  0  0  0  0
 21 29  1  0  0  0  0
 29  1  2  0  0  0  0
 29 30  1  0  0  0  0
M  END
> <ChemID>
102742

> <source_casrn>
52251-71-5

> <CAS>
52251-71-5

> <SMILES>
CCc1cc2cc3ccccc3cc2cc1

> <NAME>
2-ETHYLANTHRACENE

> <preferred_name>
2-Ethylanthracene

> <iupac>
2-Ethylanthracene

> <MPID>
27153

> <dsstox_substance_id>
DTXSID40200289

> <Canonical_QSARr>
CCc1cc2cc3ccccc3cc2cc1

> <InChI_Code_QSARr>
InChI=1S/C16H14/c1-2-12-7-8-15-10-13-5-3-4-6-14(13)11-16(15)9-12/h3-11H,2H2,1H3

> <InChI Key_QSARr>
ZXAGXLDEMUNQSH-UHFFFAOYSA-N

> <Salt_Solvent>
?

> <LogVP>
-5.2807

$$$$
102746
  -INDIGO-08031723152D

 22 23  0  0  0  0  0  0  0  0999 V2000
   -0.0001    0.0000    0.0000 C   0  0  0  0  0  0  0  0  0  0  0  0
    1.6001   -0.0000    0.0000 C   0  0  0  0  0  0  0  0  0  0  0  0
    2.4001   -1.3856    0.0000 C   0  0  0  0  0  0  0  0  0  0  0  0
    1.6001   -2.7713    0.0000 Cl  0  0  0  0  0  0  0  0  0  0  0  0
    4.0000   -1.3856    0.0000 C   0  0  0  0  0  0  0  0  0  0  0  0
    4.8000   -2.7713    0.0000 H   0  0  0  0  0  0  0  0  0  0  0  0
    4.8000    0.0000    0.0000 C   0  0  0  0  0  0  0  0  0  0  0  0
    6.4000    0.0000    0.0000 H   0  0  0  0  0  0  0  0  0  0  0  0
    4.0000    1.3856    0.0000 C   0  0  0  0  0  0  0  0  0  0  0  0
    4.8000    2.7713    0.0000 Cl  0  0  0  0  0  0  0  0  0  0  0  0
    2.4001    1.3856    0.0000 C   0  0  0  0  0  0  0  0  0  0  0  0
    1.6001    2.7713    0.0000 H   0  0  0  0  0  0  0  0  0  0  0  0
   -0.8001    1.3856    0.0000 C   0  0  0  0  0  0  0  0  0  0  0  0
   -0.0001    2.7713    0.0000 Cl  0  0  0  0  0  0  0  0  0  0  0  0
   -2.4000    1.3856    0.0000 C   0  0  0  0  0  0  0  0  0  0  0  0
   -3.2000    2.7713    0.0000 Cl  0  0  0  0  0  0  0  0  0  0  0  0
   -3.2000    0.0000    0.0000 C   0  0  0  0  0  0  0  0  0  0  0  0
   -4.8000   -0.0000    0.0000 H   0  0  0  0  0  0  0  0  0  0  0  0
   -2.4000   -1.3856    0.0000 C   0  0  0  0  0  0  0  0  0  0  0  0
   -3.2000   -2.7713    0.0000 Cl  0  0  0  0  0  0  0  0  0  0  0  0
   -0.8001   -1.3856    0.0000 C   0  0  0  0  0  0  0  0  0  0  0  0
   -0.0001   -2.7713    0.0000 Cl  0  0  0  0  0  0  0  0  0  0  0  0
  1  2  1  0  0  0  0
  2  3  1  0  0  0  0
  3  4  1  0  0  0  0
  3  5  2  0  0  0  0
  5  6  1  0  0  0  0
  5  7  1  0  0  0  0
  7  8  1  0  0  0  0
  7  9  2  0  0  0  0
  9 10  1  0  0  0  0
  9 11  1  0  0  0  0
 11  2  2  0  0  0  0
 11 12  1  0  0  0  0
  1 13  1  0  0  0  0
 13 14  1  0  0  0  0
 13 15  2  0  0  0  0
 15 16  1  0  0  0  0
 15 17  1  0  0  0  0
 17 18  1  0  0  0  0
 17 19  2  0  0  0  0
 19 20  1  0  0  0  0
 19 21  1  0  0  0  0
 21  1  2  0  0  0  0
 21 22  1  0  0  0  0
M  END
> <ChemID>
102746

> <source_casrn>
52663-63-5

> <CAS>
52663-63-5

> <SMILES>
Clc1cc(-c2c(Cl)c(Cl)cc(Cl)c2Cl)c(Cl)cc1

> <NAME>
2,2',3,5,5',6-HEXACHLOROBIPHENYL

> <preferred_name>
2,2',3,5,5',6-Hexachlorobiphenyl

> <iupac>
1,2,4,5-tetrachloro-3-(2,5-dichlorophenyl)benzene

> <MPID>
27157

> <dsstox_substance_id>
DTXSID2074160

> <Canonical_QSARr>
Clc1cc(-c2c(Cl)c(Cl)cc(Cl)c2Cl)c(Cl)cc1

> <InChI_Code_QSARr>
InChI=1S/C12H4Cl6/c13-5-1-2-7(14)6(3-5)10-11(17)8(15)4-9(16)12(10)18/h1-4H

> <InChI Key_QSARr>
UHCLFIWDCYOTOL-UHFFFAOYSA-N

> <Salt_Solvent>
?

> <LogVP>
-5.6402

$$$$
102750
  -INDIGO-08031723152D

 47 49  0  0  0  0  0  0  0  0999 V2000
   -0.0000    0.0000    0.0000 C   0  0  0  0  0  0  0  0  0  0  0  0
   -0.8000   -1.3857    0.0000 C   0  0  0  0  0  0  0  0  0  0  0  0
    0.4257   -2.4141    0.0000 H   0  0  0  0  0  0  0  0  0  0  0  0
   -2.1856   -2.1856    0.0000 C   0  0  0  0  0  0  0  0  0  0  0  0
   -3.1445   -2.1354    0.0000 H   0  0  0  0  0  0  0  0  0  0  0  0
   -2.1856   -3.7857    0.0000 C   0  0  0  0  0  0  0  0  0  0  0  0
   -3.5711   -4.5856    0.0000 Br  0  0  0  0  0  0  0  0  0  0  0  0
   -0.8000   -4.5856    0.0000 Br  0  0  0  0  0  0  0  0  0  0  0  0
   -1.6000    0.0000    0.0000 C   0  0  0  0  0  0  0  0  0  0  0  0
   -1.8780    1.5756    0.0000 H   0  0  0  0  0  0  0  0  0  0  0  0
   -3.1034   -0.5472    0.0000 C   0  0  0  0  0  0  0  0  0  0  0  0
   -4.3291    0.4812    0.0000 O   0  0  0  0  0  0  0  0  0  0  0  0
   -5.8328   -0.0660    0.0000 C   0  0  0  0  0  0  0  0  0  0  0  0
   -6.1104   -1.6417    0.0000 H   0  0  0  0  0  0  0  0  0  0  0  0
   -6.6328    1.3196    0.0000 C   0  0  0  0  0  0  0  0  0  0  0  0
   -7.4328    2.7053    0.0000 N   0  0  0  0  0  0  0  0  0  0  0  0
   -7.3362   -0.6133    0.0000 C   0  0  0  0  0  0  0  0  0  0  0  0
   -8.5619    0.4153    0.0000 C   0  0  0  0  0  0  0  0  0  0  0  0
   -8.2840    1.9909    0.0000 H   0  0  0  0  0  0  0  0  0  0  0  0
  -10.0653   -0.1320    0.0000 C   0  0  0  0  0  0  0  0  0  0  0  0
  -11.2910    0.8965    0.0000 O   0  0  0  0  0  0  0  0  0  0  0  0
  -12.8910    0.8965    0.0000 C   0  0  0  0  0  0  0  0  0  0  0  0
  -13.6910   -0.4892    0.0000 C   0  0  0  0  0  0  0  0  0  0  0  0
  -12.8910   -1.8748    0.0000 H   0  0  0  0  0  0  0  0  0  0  0  0
  -15.2910   -0.4892    0.0000 C   0  0  0  0  0  0  0  0  0  0  0  0
  -16.0910   -1.8748    0.0000 H   0  0  0  0  0  0  0  0  0  0  0  0
  -16.0910    0.8965    0.0000 C   0  0  0  0  0  0  0  0  0  0  0  0
  -17.6911    0.8965    0.0000 H   0  0  0  0  0  0  0  0  0  0  0  0
  -15.2910    2.2820    0.0000 C   0  0  0  0  0  0  0  0  0  0  0  0
  -16.0910    3.6677    0.0000 H   0  0  0  0  0  0  0  0  0  0  0  0
  -13.6910    2.2820    0.0000 C   0  0  0  0  0  0  0  0  0  0  0  0
  -12.8910    3.6677    0.0000 H   0  0  0  0  0  0  0  0  0  0  0  0
  -10.3432   -1.7077    0.0000 C   0  0  0  0  0  0  0  0  0  0  0  0
  -11.8466   -2.2549    0.0000 H   0  0  0  0  0  0  0  0  0  0  0  0
   -9.1175   -2.7361    0.0000 C   0  0  0  0  0  0  0  0  0  0  0  0
   -9.3954   -4.3119    0.0000 H   0  0  0  0  0  0  0  0  0  0  0  0
   -7.6141   -2.1889    0.0000 C   0  0  0  0  0  0  0  0  0  0  0  0
   -6.3884   -3.2174    0.0000 H   0  0  0  0  0  0  0  0  0  0  0  0
   -3.5711   -1.3857    0.0000 O   0  0  0  0  0  0  0  0  0  0  0  0
    0.2779    1.5756    0.0000 C   0  0  0  0  0  0  0  0  0  0  0  0
    0.5555    3.1514    0.0000 H   0  0  0  0  0  0  0  0  0  0  0  0
    1.7813    2.1230    0.0000 H   0  0  0  0  0  0  0  0  0  0  0  0
   -0.9478    2.6042    0.0000 H   0  0  0  0  0  0  0  0  0  0  0  0
    1.5037   -0.5472    0.0000 C   0  0  0  0  0  0  0  0  0  0  0  0
    3.0070   -1.0945    0.0000 H   0  0  0  0  0  0  0  0  0  0  0  0
    2.7291    0.4812    0.0000 H   0  0  0  0  0  0  0  0  0  0  0  0
    1.7813   -2.1229    0.0000 H   0  0  0  0  0  0  0  0  0  0  0  0
  1  2  1  0  0  0  0
  2  3  1  0  0  0  0
  2  4  1  0  0  0  0
  4  5  1  0  0  0  0
  4  6  2  0  0  0  0
  6  7  1  0  0  0  0
  6  8  1  0  0  0  0
  2  9  1  0  0  0  0
  9  1  1  0  0  0  0
  9 10  1  0  0  0  0
  9 11  1  0  0  0  0
 11 12  1  0  0  0  0
 12 13  1  0  0  0  0
 13 14  1  0  0  0  0
 13 15  1  0  0  0  0
 15 16  3  0  0  0  0
 13 17  1  0  0  0  0
 17 18  1  0  0  0  0
 18 19  1  0  0  0  0
 18 20  2  0  0  0  0
 20 21  1  0  0  0  0
 21 22  1  0  0  0  0
 22 23  1  0  0  0  0
 23 24  1  0  0  0  0
 23 25  2  0  0  0  0
 25 26  1  0  0  0  0
 25 27  1  0  0  0  0
 27 28  1  0  0  0  0
 27 29  2  0  0  0  0
 29 30  1  0  0  0  0
 29 31  1  0  0  0  0
 31 22  2  0  0  0  0
 31 32  1  0  0  0  0
 20 33  1  0  0  0  0
 33 34  1  0  0  0  0
 33 35  2  0  0  0  0
 35 36  1  0  0  0  0
 35 37  1  0  0  0  0
 37 17  2  0  0  0  0
 37 38  1  0  0  0  0
 11 39  2  0  0  0  0
  1 40  1  0  0  0  0
 40 41  1  0  0  0  0
 40 42  1  0  0  0  0
 40 43  1  0  0  0  0
  1 44  1  0  0  0  0
 44 45  1  0  0  0  0
 44 46  1  0  0  0  0
 44 47  1  0  0  0  0
M  END
> <ChemID>
102750

> <source_casrn>
52918-63-5

> <CAS>
52918-63-5

> <SMILES>
CC1(C)[C@@H]([C@@H]1C=C(Br)Br)C(=O)O[C@H](C#N)c1cccc(c1)Oc1ccccc1

> <NAME>
DELTAMETHRIN

> <preferred_name>
Deltamethrin

> <iupac>
(S)-cyano(3-phenoxyphenyl)methyl (1R,3R)-3-(2,2-dibromoethenyl)-2,2-dimethylcyclopropanecarboxylate

> <MPID>
27161

> <dsstox_substance_id>
DTXSID8020381

> <Canonical_QSARr>
CC1(C)C(C1C=C(Br)Br)C(=O)OC(C#N)c1cccc(c1)Oc1ccccc1

> <InChI_Code_QSARr>
InChI=1S/C22H19Br2NO3/c1-22(2)17(12-19(23)24)20(22)21(26)28-18(13-25)14-7-6-10-16(11-14)27-15-8-4-3-5-9-15/h3-12,17-18,20H,1-2H3

> <InChI Key_QSARr>
OWZREIFADZCYQD-UHFFFAOYSA-N

> <Salt_Solvent>
?

> <LogVP>
-7.8239

$$$$
102755
  -INDIGO-08031723152D

 46 46  0  0  0  0  0  0  0  0999 V2000
   10.2266   -4.8692    0.0000 C   0  0  0  0  0  0  0  0  0  0  0  0
   11.8022   -4.5913    0.0000 H   0  0  0  0  0  0  0  0  0  0  0  0
   11.2549   -6.0949    0.0000 H   0  0  0  0  0  0  0  0  0  0  0  0
   10.7737   -3.3657    0.0000 H   0  0  0  0  0  0  0  0  0  0  0  0
    8.6509   -5.1470    0.0000 C   0  0  0  0  0  0  0  0  0  0  0  0
    7.5700   -6.3266    0.0000 H   0  0  0  0  0  0  0  0  0  0  0  0
    8.7208   -6.7455    0.0000 H   0  0  0  0  0  0  0  0  0  0  0  0
    7.6224   -3.9213    0.0000 C   0  0  0  0  0  0  0  0  0  0  0  0
    8.1698   -2.4179    0.0000 H   0  0  0  0  0  0  0  0  0  0  0  0
    6.0468   -4.1992    0.0000 C   0  0  0  0  0  0  0  0  0  0  0  0
    5.4994   -5.7026    0.0000 C   0  0  0  0  0  0  0  0  0  0  0  0
    6.5279   -6.9283    0.0000 H   0  0  0  0  0  0  0  0  0  0  0  0
    4.9523   -7.2062    0.0000 H   0  0  0  0  0  0  0  0  0  0  0  0
    3.9238   -5.9805    0.0000 H   0  0  0  0  0  0  0  0  0  0  0  0
    5.0182   -2.9735    0.0000 C   0  0  0  0  0  0  0  0  0  0  0  0
    4.4711   -4.4771    0.0000 H   0  0  0  0  0  0  0  0  0  0  0  0
    6.4039   -2.1735    0.0000 C   0  0  0  0  0  0  0  0  0  0  0  0
    7.7895   -1.3734    0.0000 C   0  0  0  0  0  0  0  0  0  0  0  0
    9.1752   -0.5735    0.0000 H   0  0  0  0  0  0  0  0  0  0  0  0
    3.9897   -1.7478    0.0000 O   0  0  0  0  0  0  0  0  0  0  0  0
    2.4140   -2.0256    0.0000 C   0  0  0  0  0  0  0  0  0  0  0  0
    1.3857   -0.7999    0.0000 C   0  0  0  0  0  0  0  0  0  0  0  0
    2.4140    0.4256    0.0000 H   0  0  0  0  0  0  0  0  0  0  0  0
    0.0001   -1.6000    0.0000 C   0  0  0  0  0  0  0  0  0  0  0  0
   -1.5756   -1.8779    0.0000 H   0  0  0  0  0  0  0  0  0  0  0  0
    0.7999   -2.9856    0.0000 C   0  0  0  0  0  0  0  0  0  0  0  0
    1.6554   -3.4215    0.0000 H   0  0  0  0  0  0  0  0  0  0  0  0
    0.0001   -4.3712    0.0000 C   0  0  0  0  0  0  0  0  0  0  0  0
    0.7999   -5.7568    0.0000 C   0  0  0  0  0  0  0  0  0  0  0  0
    1.6000   -7.1426    0.0000 H   0  0  0  0  0  0  0  0  0  0  0  0
    0.0001   -7.1426    0.0000 H   0  0  0  0  0  0  0  0  0  0  0  0
    2.4001   -5.7568    0.0000 H   0  0  0  0  0  0  0  0  0  0  0  0
   -1.6001   -4.3712    0.0000 C   0  0  0  0  0  0  0  0  0  0  0  0
   -2.3999   -5.7568    0.0000 H   0  0  0  0  0  0  0  0  0  0  0  0
   -3.2000   -4.3712    0.0000 H   0  0  0  0  0  0  0  0  0  0  0  0
   -0.8000   -5.7568    0.0000 H   0  0  0  0  0  0  0  0  0  0  0  0
    0.0001    0.0000    0.0000 C   0  0  0  0  0  0  0  0  0  0  0  0
   -1.5756    0.2779    0.0000 C   0  0  0  0  0  0  0  0  0  0  0  0
   -3.1515    0.5558    0.0000 H   0  0  0  0  0  0  0  0  0  0  0  0
   -2.1229    1.7813    0.0000 H   0  0  0  0  0  0  0  0  0  0  0  0
   -2.6041   -0.9478    0.0000 H   0  0  0  0  0  0  0  0  0  0  0  0
    0.5472    1.5034    0.0000 C   0  0  0  0  0  0  0  0  0  0  0  0
    1.0945    3.0070    0.0000 H   0  0  0  0  0  0  0  0  0  0  0  0
   -0.4811    2.7291    0.0000 H   0  0  0  0  0  0  0  0  0  0  0  0
    2.1228    1.7813    0.0000 H   0  0  0  0  0  0  0  0  0  0  0  0
    2.4001   -2.9856    0.0000 O   0  0  0  0  0  0  0  0  0  0  0  0
  1  2  1  0  0  0  0
  1  3  1  0  0  0  0
  1  4  1  0  0  0  0
  1  5  1  0  0  0  0
  5  6  1  0  0  0  0
  5  7  1  0  0  0  0
  5  8  1  0  0  0  0
  8  9  1  0  0  0  0
  8 10  2  0  0  0  0
 10 11  1  0  0  0  0
 11 12  1  0  0  0  0
 11 13  1  0  0  0  0
 11 14  1  0  0  0  0
 10 15  1  0  0  0  0
 15 16  1  0  0  0  0
 15 17  1  0  0  0  0
 17 18  3  0  0  0  0
 18 19  1  0  0  0  0
 15 20  1  0  0  0  0
 20 21  1  0  0  0  0
 21 22  1  0  0  0  0
 22 23  1  0  0  0  0
 22 24  1  0  0  0  0
 24 25  1  0  0  0  0
 24 26  1  0  0  0  0
 26 27  1  0  0  0  0
 26 28  2  0  0  0  0
 28 29  1  0  0  0  0
 29 30  1  0  0  0  0
 29 31  1  0  0  0  0
 29 32  1  0  0  0  0
 28 33  1  0  0  0  0
 33 34  1  0  0  0  0
 33 35  1  0  0  0  0
 33 36  1  0  0  0  0
 24 37  1  0  0  0  0
 37 22  1  0  0  0  0
 37 38  1  0  0  0  0
 38 39  1  0  0  0  0
 38 40  1  0  0  0  0
 38 41  1  0  0  0  0
 37 42  1  0  0  0  0
 42 43  1  0  0  0  0
 42 44  1  0  0  0  0
 42 45  1  0  0  0  0
 21 46  2  0  0  0  0
M  END
> <ChemID>
102755

> <source_casrn>
54406-48-3

> <CAS>
54406-48-3

> <SMILES>
CC(C)=CC1C(C(=O)OC(C#C)/C(/C)=C/CC)C1(C)C

> <NAME>
EMPENTHRIN

> <preferred_name>
Empenthrin

> <iupac>
(4E)-4-methylhept-4-en-1-yn-3-yl 2,2-dimethyl-3-(2-methylprop-1-en-1-yl)cyclopropanecarboxylate

> <MPID>
27165

> <dsstox_substance_id>
DTXSID2058122

> <Canonical_QSARr>
CC(C)=CC1C(C(=O)OC(C#C)C(C)=CCC)C1(C)C

> <InChI_Code_QSARr>
InChI=1S/C18H26O2/c1-8-10-13(5)15(9-2)20-17(19)16-14(11-12(3)4)18(16,6)7/h2,10-11,14-16H,8H2,1,3-7H3/b13-10+

> <InChI Key_QSARr>
YUGWDVYLFSETPE-JLHYYAGUSA-N

> <Salt_Solvent>
?

> <LogVP>
-3.9788

$$$$
102759
  -INDIGO-08031723152D

 58 59  0  0  0  0  0  0  0  0999 V2000
    6.0809   -2.5322    0.0000 C   0  0  0  0  0  0  0  0  0  0  0  0
    6.0809   -4.1322    0.0000 O   0  0  0  0  0  0  0  0  0  0  0  0
    4.6951   -1.7323    0.0000 O   0  0  0  0  0  0  0  0  0  0  0  0
    3.3096   -2.5322    0.0000 C   0  0  0  0  0  0  0  0  0  0  0  0
    1.9238   -1.7323    0.0000 C   0  0  0  0  0  0  0  0  0  0  0  0
    0.5383   -2.5322    0.0000 C   0  0  0  0  0  0  0  0  0  0  0  0
   -0.6509   -1.4618    0.0000 C   0  0  0  0  0  0  0  0  0  0  0  0
   -2.2264   -1.1838    0.0000 H   0  0  0  0  0  0  0  0  0  0  0  0
   -1.5913   -2.7561    0.0000 H   0  0  0  0  0  0  0  0  0  0  0  0
   -0.0000   -0.0001    0.0000 C   0  0  0  0  0  0  0  0  0  0  0  0
    1.5912   -0.1673    0.0000 O   0  0  0  0  0  0  0  0  0  0  0  0
    0.3326    1.5650    0.0000 C   0  0  0  0  0  0  0  0  0  0  0  0
    0.6655    3.1301    0.0000 H   0  0  0  0  0  0  0  0  0  0  0  0
   -0.8564    2.6357    0.0000 H   0  0  0  0  0  0  0  0  0  0  0  0
    1.8544    2.0594    0.0000 H   0  0  0  0  0  0  0  0  0  0  0  0
   -1.5216    0.4943    0.0000 C   0  0  0  0  0  0  0  0  0  0  0  0
   -3.0434    0.9889    0.0000 H   0  0  0  0  0  0  0  0  0  0  0  0
   -1.8545    2.0594    0.0000 H   0  0  0  0  0  0  0  0  0  0  0  0
   -2.8787   -0.3535    0.0000 H   0  0  0  0  0  0  0  0  0  0  0  0
    0.5383   -4.1322    0.0000 C   0  0  0  0  0  0  0  0  0  0  0  0
   -0.8475   -4.9323    0.0000 H   0  0  0  0  0  0  0  0  0  0  0  0
    1.9238   -4.9323    0.0000 C   0  0  0  0  0  0  0  0  0  0  0  0
    1.9238   -6.5323    0.0000 H   0  0  0  0  0  0  0  0  0  0  0  0
    3.3096   -4.1322    0.0000 C   0  0  0  0  0  0  0  0  0  0  0  0
    4.6951   -4.9323    0.0000 H   0  0  0  0  0  0  0  0  0  0  0  0
    7.4664   -1.7323    0.0000 N   0  0  0  0  0  0  0  0  0  0  0  0
    8.8522   -2.5322    0.0000 S   0  0  0  0  0  0  0  0  0  0  0  0
   10.4277   -2.2545    0.0000 N   0  0  0  0  0  0  0  0  0  0  0  0
   11.4562   -3.4801    0.0000 C   0  0  0  0  0  0  0  0  0  0  0  0
   13.0182   -3.8263    0.0000 H   0  0  0  0  0  0  0  0  0  0  0  0
   12.8056   -2.6205    0.0000 H   0  0  0  0  0  0  0  0  0  0  0  0
   10.9090   -4.9837    0.0000 C   0  0  0  0  0  0  0  0  0  0  0  0
    9.3470   -4.6373    0.0000 H   0  0  0  0  0  0  0  0  0  0  0  0
    9.5596   -5.8433    0.0000 H   0  0  0  0  0  0  0  0  0  0  0  0
   11.9375   -6.2093    0.0000 C   0  0  0  0  0  0  0  0  0  0  0  0
   13.4995   -6.5556    0.0000 H   0  0  0  0  0  0  0  0  0  0  0  0
   13.2868   -5.3497    0.0000 H   0  0  0  0  0  0  0  0  0  0  0  0
   11.3902   -7.7127    0.0000 C   0  0  0  0  0  0  0  0  0  0  0  0
   10.8429   -9.2163    0.0000 H   0  0  0  0  0  0  0  0  0  0  0  0
   12.4187   -8.9386    0.0000 H   0  0  0  0  0  0  0  0  0  0  0  0
    9.8144   -7.9907    0.0000 H   0  0  0  0  0  0  0  0  0  0  0  0
   10.9750   -0.7509    0.0000 C   0  0  0  0  0  0  0  0  0  0  0  0
    9.4491   -0.2699    0.0000 H   0  0  0  0  0  0  0  0  0  0  0  0
   10.2363    0.6683    0.0000 H   0  0  0  0  0  0  0  0  0  0  0  0
   12.4784   -0.2037    0.0000 C   0  0  0  0  0  0  0  0  0  0  0  0
   14.0045   -0.6847    0.0000 H   0  0  0  0  0  0  0  0  0  0  0  0
   13.2174   -1.6229    0.0000 H   0  0  0  0  0  0  0  0  0  0  0  0
   12.7565    1.3720    0.0000 C   0  0  0  0  0  0  0  0  0  0  0  0
   11.2304    1.8530    0.0000 H   0  0  0  0  0  0  0  0  0  0  0  0
   12.0175    2.7912    0.0000 H   0  0  0  0  0  0  0  0  0  0  0  0
   14.2599    1.9192    0.0000 C   0  0  0  0  0  0  0  0  0  0  0  0
   15.7634    2.4665    0.0000 H   0  0  0  0  0  0  0  0  0  0  0  0
   14.5377    3.4949    0.0000 H   0  0  0  0  0  0  0  0  0  0  0  0
   15.4856    0.8908    0.0000 H   0  0  0  0  0  0  0  0  0  0  0  0
    7.4664   -0.1323    0.0000 C   0  0  0  0  0  0  0  0  0  0  0  0
    7.4664    1.4676    0.0000 H   0  0  0  0  0  0  0  0  0  0  0  0
    6.0809    0.6677    0.0000 H   0  0  0  0  0  0  0  0  0  0  0  0
    8.8522    0.6677    0.0000 H   0  0  0  0  0  0  0  0  0  0  0  0
  1  2  2  0  0  0  0
  1  3  1  0  0  0  0
  3  4  1  0  0  0  0
  4  5  1  0  0  0  0
  5  6  2  0  0  0  0
  6  7  1  0  0  0  0
  7  8  1  0  0  0  0
  7  9  1  0  0  0  0
  7 10  1  0  0  0  0
 10 11  1  0  0  0  0
 11  5  1  0  0  0  0
 10 12  1  0  0  0  0
 12 13  1  0  0  0  0
 12 14  1  0  0  0  0
 12 15  1  0  0  0  0
 10 16  1  0  0  0  0
 16 17  1  0  0  0  0
 16 18  1  0  0  0  0
 16 19  1  0  0  0  0
  6 20  1  0  0  0  0
 20 21  1  0  0  0  0
 20 22  2  0  0  0  0
 22 23  1  0  0  0  0
 22 24  1  0  0  0  0
 24  4  2  0  0  0  0
 24 25  1  0  0  0  0
  1 26  1  0  0  0  0
 26 27  1  0  0  0  0
 27 28  1  0  0  0  0
 28 29  1  0  0  0  0
 29 30  1  0  0  0  0
 29 31  1  0  0  0  0
 29 32  1  0  0  0  0
 32 33  1  0  0  0  0
 32 34  1  0  0  0  0
 32 35  1  0  0  0  0
 35 36  1  0  0  0  0
 35 37  1  0  0  0  0
 35 38  1  0  0  0  0
 38 39  1  0  0  0  0
 38 40  1  0  0  0  0
 38 41  1  0  0  0  0
 28 42  1  0  0  0  0
 42 43  1  0  0  0  0
 42 44  1  0  0  0  0
 42 45  1  0  0  0  0
 45 46  1  0  0  0  0
 45 47  1  0  0  0  0
 45 48  1  0  0  0  0
 48 49  1  0  0  0  0
 48 50  1  0  0  0  0
 48 51  1  0  0  0  0
 51 52  1  0  0  0  0
 51 53  1  0  0  0  0
 51 54  1  0  0  0  0
 26 55  1  0  0  0  0
 55 56  1  0  0  0  0
 55 57  1  0  0  0  0
 55 58  1  0  0  0  0
M  END
> <ChemID>
102759

> <source_casrn>
55285-14-8

> <CAS>
55285-14-8

> <SMILES>
CN(SN(CCCC)CCCC)C(=O)Oc1cccc2CC(C)(C)Oc21

> <NAME>
Carbamic acid, [(dibutylamino)thio]methyl-, 2,3-

> <preferred_name>
Carbosulfan

> <iupac>
2,2-dimethyl-2,3-dihydro-1-benzofuran-7-yl [(dibutylamino)sulfanyl]methylcarbamate

> <MPID>
27169

> <dsstox_substance_id>
DTXSID5023950

> <Canonical_QSARr>
CN(SN(CCCC)CCCC)C(=O)Oc1cccc2CC(C)(C)Oc21

> <InChI_Code_QSARr>
InChI=1S/C20H32N2O3S/c1-6-8-13-22(14-9-7-2)26-21(5)19(23)24-17-12-10-11-16-15-20(3,4)25-18(16)17/h10-12H,6-9,13-15H2,1-5H3

> <InChI Key_QSARr>
JLQUFIHWVLZVTJ-UHFFFAOYSA-N

> <Salt_Solvent>
?

> <LogVP>
-6.5129

$$$$
102763
  -INDIGO-08031723152D

 35 34  0  0  0  0  0  0  0  0999 V2000
   -8.3139   -1.6000    0.0000 Cl  0  0  0  0  0  0  0  0  0  0  0  0
   -8.3139    0.0000    0.0000 C   0  0  0  0  0  0  0  0  0  0  0  0
   -6.9283    0.8000    0.0000 O   0  0  0  0  0  0  0  0  0  0  0  0
   -5.5427    0.0000    0.0000 C   0  0  0  0  0  0  0  0  0  0  0  0
   -4.9303   -1.4782    0.0000 H   0  0  0  0  0  0  0  0  0  0  0  0
   -6.1548   -1.4782    0.0000 H   0  0  0  0  0  0  0  0  0  0  0  0
   -4.1568    0.8000    0.0000 C   0  0  0  0  0  0  0  0  0  0  0  0
   -4.7692    2.2782    0.0000 H   0  0  0  0  0  0  0  0  0  0  0  0
   -3.5447    2.2782    0.0000 H   0  0  0  0  0  0  0  0  0  0  0  0
   -2.7712    0.0000    0.0000 C   0  0  0  0  0  0  0  0  0  0  0  0
   -2.1591   -1.4782    0.0000 H   0  0  0  0  0  0  0  0  0  0  0  0
   -3.3836   -1.4782    0.0000 H   0  0  0  0  0  0  0  0  0  0  0  0
   -1.3856    0.8000    0.0000 C   0  0  0  0  0  0  0  0  0  0  0  0
   -1.9980    2.2782    0.0000 H   0  0  0  0  0  0  0  0  0  0  0  0
   -0.7732    2.2782    0.0000 H   0  0  0  0  0  0  0  0  0  0  0  0
   -0.0000    0.0000    0.0000 C   0  0  0  0  0  0  0  0  0  0  0  0
    0.6124   -1.4782    0.0000 H   0  0  0  0  0  0  0  0  0  0  0  0
   -0.6124   -1.4782    0.0000 H   0  0  0  0  0  0  0  0  0  0  0  0
    1.3856    0.8000    0.0000 C   0  0  0  0  0  0  0  0  0  0  0  0
    0.7735    2.2782    0.0000 H   0  0  0  0  0  0  0  0  0  0  0  0
    1.9980    2.2782    0.0000 H   0  0  0  0  0  0  0  0  0  0  0  0
    2.7712    0.0000    0.0000 C   0  0  0  0  0  0  0  0  0  0  0  0
    3.3836   -1.4782    0.0000 H   0  0  0  0  0  0  0  0  0  0  0  0
    2.1591   -1.4782    0.0000 H   0  0  0  0  0  0  0  0  0  0  0  0
    4.1570    0.8000    0.0000 C   0  0  0  0  0  0  0  0  0  0  0  0
    3.5446    2.2782    0.0000 H   0  0  0  0  0  0  0  0  0  0  0  0
    4.7692    2.2782    0.0000 H   0  0  0  0  0  0  0  0  0  0  0  0
    5.5426    0.0000    0.0000 C   0  0  0  0  0  0  0  0  0  0  0  0
    6.1548   -1.4782    0.0000 H   0  0  0  0  0  0  0  0  0  0  0  0
    4.9302   -1.4782    0.0000 H   0  0  0  0  0  0  0  0  0  0  0  0
    6.9282    0.8000    0.0000 C   0  0  0  0  0  0  0  0  0  0  0  0
    8.3138    1.6000    0.0000 H   0  0  0  0  0  0  0  0  0  0  0  0
    8.3138    0.0000    0.0000 H   0  0  0  0  0  0  0  0  0  0  0  0
    6.9282    2.4000    0.0000 H   0  0  0  0  0  0  0  0  0  0  0  0
   -9.6995    0.8000    0.0000 O   0  0  0  0  0  0  0  0  0  0  0  0
  1  2  1  0  0  0  0
  2  3  1  0  0  0  0
  3  4  1  0  0  0  0
  4  5  1  0  0  0  0
  4  6  1  0  0  0  0
  4  7  1  0  0  0  0
  7  8  1  0  0  0  0
  7  9  1  0  0  0  0
  7 10  1  0  0  0  0
 10 11  1  0  0  0  0
 10 12  1  0  0  0  0
 10 13  1  0  0  0  0
 13 14  1  0  0  0  0
 13 15  1  0  0  0  0
 13 16  1  0  0  0  0
 16 17  1  0  0  0  0
 16 18  1  0  0  0  0
 16 19  1  0  0  0  0
 19 20  1  0  0  0  0
 19 21  1  0  0  0  0
 19 22  1  0  0  0  0
 22 23  1  0  0  0  0
 22 24  1  0  0  0  0
 22 25  1  0  0  0  0
 25 26  1  0  0  0  0
 25 27  1  0  0  0  0
 25 28  1  0  0  0  0
 28 29  1  0  0  0  0
 28 30  1  0  0  0  0
 28 31  1  0  0  0  0
 31 32  1  0  0  0  0
 31 33  1  0  0  0  0
 31 34  1  0  0  0  0
  2 35  2  0  0  0  0
M  END
> <ChemID>
102763

> <source_casrn>
55488-51-2

> <CAS>
55488-51-2

> <SMILES>
CCCCCCCCCCOC(=O)Cl

> <NAME>
n-Decyl Chloroformate

> <preferred_name>
Decyl chloroformate

> <iupac>
Decyl chloroformate

> <MPID>
27173

> <dsstox_substance_id>
DTXSID40204065

> <Canonical_QSARr>
CCCCCCCCCCOC(=O)Cl

> <InChI_Code_QSARr>
InChI=1S/C11H21ClO2/c1-2-3-4-5-6-7-8-9-10-14-11(12)13/h2-10H2,1H3

> <InChI Key_QSARr>
AZZCHVHSWUYCQA-UHFFFAOYSA-N

> <Salt_Solvent>
?

> <LogVP>
-1.5901

$$$$
102768
  -INDIGO-08031723152D

 32 32  0  0  0  0  0  0  0  0999 V2000
   -6.9298   -0.0749    0.0000 C   0  0  0  0  0  0  0  0  0  0  0  0
   -6.7626   -1.6661    0.0000 O   0  0  0  0  0  0  0  0  0  0  0  0
   -8.3914    0.5758    0.0000 N   0  0  0  0  0  0  0  0  0  0  0  0
   -9.6860   -0.3645    0.0000 C   0  0  0  0  0  0  0  0  0  0  0  0
  -10.9803   -1.3050    0.0000 H   0  0  0  0  0  0  0  0  0  0  0  0
  -11.1476    0.2861    0.0000 H   0  0  0  0  0  0  0  0  0  0  0  0
   -9.5187   -1.9558    0.0000 H   0  0  0  0  0  0  0  0  0  0  0  0
   -8.5586    2.1671    0.0000 C   0  0  0  0  0  0  0  0  0  0  0  0
   -8.7259    3.7583    0.0000 H   0  0  0  0  0  0  0  0  0  0  0  0
  -10.0205    2.8179    0.0000 H   0  0  0  0  0  0  0  0  0  0  0  0
   -7.2643    3.1075    0.0000 H   0  0  0  0  0  0  0  0  0  0  0  0
   -5.6354    0.8655    0.0000 N   0  0  0  0  0  0  0  0  0  0  0  0
   -5.8027    2.4568    0.0000 H   0  0  0  0  0  0  0  0  0  0  0  0
   -4.1736    0.2148    0.0000 C   0  0  0  0  0  0  0  0  0  0  0  0
   -3.8411   -1.3502    0.0000 N   0  0  0  0  0  0  0  0  0  0  0  0
   -2.2497   -1.5175    0.0000 O   0  0  0  0  0  0  0  0  0  0  0  0
   -1.5989   -0.0559    0.0000 C   0  0  0  0  0  0  0  0  0  0  0  0
   -0.0001   -0.0000    0.0000 C   0  0  0  0  0  0  0  0  0  0  0  0
    1.5990    0.0558    0.0000 C   0  0  0  0  0  0  0  0  0  0  0  0
    3.1980    0.1116    0.0000 H   0  0  0  0  0  0  0  0  0  0  0  0
    2.4470   -1.3011    0.0000 H   0  0  0  0  0  0  0  0  0  0  0  0
    2.3502    1.4685    0.0000 H   0  0  0  0  0  0  0  0  0  0  0  0
    0.0557   -1.5990    0.0000 C   0  0  0  0  0  0  0  0  0  0  0  0
    0.1118   -3.1981    0.0000 H   0  0  0  0  0  0  0  0  0  0  0  0
    1.4685   -2.3501    0.0000 H   0  0  0  0  0  0  0  0  0  0  0  0
   -1.3010   -2.4468    0.0000 H   0  0  0  0  0  0  0  0  0  0  0  0
   -0.0559    1.5990    0.0000 C   0  0  0  0  0  0  0  0  0  0  0  0
   -0.1117    3.1981    0.0000 H   0  0  0  0  0  0  0  0  0  0  0  0
    1.3011    2.4469    0.0000 H   0  0  0  0  0  0  0  0  0  0  0  0
   -1.4685    2.3502    0.0000 H   0  0  0  0  0  0  0  0  0  0  0  0
   -2.7880    1.0147    0.0000 C   0  0  0  0  0  0  0  0  0  0  0  0
   -2.6208    2.6060    0.0000 H   0  0  0  0  0  0  0  0  0  0  0  0
  1  2  2  0  0  0  0
  1  3  1  0  0  0  0
  3  4  1  0  0  0  0
  4  5  1  0  0  0  0
  4  6  1  0  0  0  0
  4  7  1  0  0  0  0
  3  8  1  0  0  0  0
  8  9  1  0  0  0  0
  8 10  1  0  0  0  0
  8 11  1  0  0  0  0
  1 12  1  0  0  0  0
 12 13  1  0  0  0  0
 12 14  1  0  0  0  0
 14 15  2  0  0  0  0
 15 16  1  0  0  0  0
 16 17  1  0  0  0  0
 17 18  1  0  0  0  0
 18 19  1  0  0  0  0
 19 20  1  0  0  0  0
 19 21  1  0  0  0  0
 19 22  1  0  0  0  0
 18 23  1  0  0  0  0
 23 24  1  0  0  0  0
 23 25  1  0  0  0  0
 23 26  1  0  0  0  0
 18 27  1  0  0  0  0
 27 28  1  0  0  0  0
 27 29  1  0  0  0  0
 27 30  1  0  0  0  0
 17 31  2  0  0  0  0
 31 14  1  0  0  0  0
 31 32  1  0  0  0  0
M  END
> <ChemID>
102768

> <source_casrn>
55861-78-4

> <CAS>
55861-78-4

> <SMILES>
CN(C)C(=O)Nc1cc(o[n]1)C(C)(C)C

> <NAME>
ISOURON

> <preferred_name>
Isouron

> <iupac>
3-(5-tert-butyl-1,2-oxazol-3-yl)-1,1-dimethylurea

> <MPID>
27177

> <dsstox_substance_id>
DTXSID1042079

> <Canonical_QSARr>
CN(C)C(=O)Nc1cc(o[n]1)C(C)(C)C

> <InChI_Code_QSARr>
InChI=1S/C10H17N3O2/c1-10(2,3)7-6-8(12-15-7)11-9(14)13(4)5/h6H,1-5H3,(H,11,12,14)

> <InChI Key_QSARr>
JLLJHQLUZAKJFH-UHFFFAOYSA-N

> <Salt_Solvent>
?

> <LogVP>
-6.4168

$$$$
102775
  -INDIGO-08031723152D

 38 38  0  0  0  0  0  0  0  0999 V2000
    1.3857    2.4000    0.0000 N   0  0  0  0  0  0  0  0  0  0  0  0
    2.7713    3.2000    0.0000 N   0  0  0  0  0  0  0  0  0  0  0  0
    4.1570    2.4000    0.0000 C   0  0  0  0  0  0  0  0  0  0  0  0
    5.5426    3.2000    0.0000 S   0  0  0  0  0  0  0  0  0  0  0  0
    5.5426    4.8000    0.0000 C   0  0  0  0  0  0  0  0  0  0  0  0
    5.5426    6.4000    0.0000 H   0  0  0  0  0  0  0  0  0  0  0  0
    6.9283    5.6000    0.0000 H   0  0  0  0  0  0  0  0  0  0  0  0
    4.1568    5.6000    0.0000 H   0  0  0  0  0  0  0  0  0  0  0  0
    4.1570    0.8000    0.0000 N   0  0  0  0  0  0  0  0  0  0  0  0
    5.5426    0.0000    0.0000 N   0  0  0  0  0  0  0  0  0  0  0  0
    6.9283    0.8000    0.0000 C   0  0  0  0  0  0  0  0  0  0  0  0
    6.9283    2.4000    0.0000 H   0  0  0  0  0  0  0  0  0  0  0  0
    8.3138    0.0000    0.0000 C   0  0  0  0  0  0  0  0  0  0  0  0
    7.5138   -1.3857    0.0000 H   0  0  0  0  0  0  0  0  0  0  0  0
    9.6996   -0.8000    0.0000 C   0  0  0  0  0  0  0  0  0  0  0  0
   11.0851   -1.6000    0.0000 H   0  0  0  0  0  0  0  0  0  0  0  0
   11.0851    0.0000    0.0000 H   0  0  0  0  0  0  0  0  0  0  0  0
    9.6996   -2.4000    0.0000 H   0  0  0  0  0  0  0  0  0  0  0  0
    9.1139    1.3857    0.0000 C   0  0  0  0  0  0  0  0  0  0  0  0
    9.9138    2.7712    0.0000 H   0  0  0  0  0  0  0  0  0  0  0  0
   10.7138    1.3857    0.0000 H   0  0  0  0  0  0  0  0  0  0  0  0
    8.3138    2.7712    0.0000 H   0  0  0  0  0  0  0  0  0  0  0  0
    2.7713    0.0000    0.0000 C   0  0  0  0  0  0  0  0  0  0  0  0
    2.7713   -1.6000    0.0000 O   0  0  0  0  0  0  0  0  0  0  0  0
    1.3857    0.8000    0.0000 C   0  0  0  0  0  0  0  0  0  0  0  0
    0.0000    0.0000    0.0000 C   0  0  0  0  0  0  0  0  0  0  0  0
   -1.3855   -0.8000    0.0000 C   0  0  0  0  0  0  0  0  0  0  0  0
   -2.7713   -1.6000    0.0000 H   0  0  0  0  0  0  0  0  0  0  0  0
   -2.7713    0.0000    0.0000 H   0  0  0  0  0  0  0  0  0  0  0  0
   -1.6636   -2.3758    0.0000 H   0  0  0  0  0  0  0  0  0  0  0  0
   -0.8001    1.3857    0.0000 C   0  0  0  0  0  0  0  0  0  0  0  0
   -1.5999    2.7712    0.0000 H   0  0  0  0  0  0  0  0  0  0  0  0
   -2.4000    1.3857    0.0000 H   0  0  0  0  0  0  0  0  0  0  0  0
    0.0000    2.7712    0.0000 H   0  0  0  0  0  0  0  0  0  0  0  0
    0.8001   -1.3857    0.0000 C   0  0  0  0  0  0  0  0  0  0  0  0
    1.8285   -2.6113    0.0000 H   0  0  0  0  0  0  0  0  0  0  0  0
    0.2527   -2.8891    0.0000 H   0  0  0  0  0  0  0  0  0  0  0  0
   -0.7758   -1.6635    0.0000 H   0  0  0  0  0  0  0  0  0  0  0  0
  1  2  1  0  0  0  0
  2  3  2  0  0  0  0
  3  4  1  0  0  0  0
  4  5  1  0  0  0  0
  5  6  1  0  0  0  0
  5  7  1  0  0  0  0
  5  8  1  0  0  0  0
  3  9  1  0  0  0  0
  9 10  1  0  0  0  0
 10 11  2  0  0  0  0
 11 12  1  0  0  0  0
 11 13  1  0  0  0  0
 13 14  1  0  0  0  0
 13 15  1  0  0  0  0
 15 16  1  0  0  0  0
 15 17  1  0  0  0  0
 15 18  1  0  0  0  0
 13 19  1  0  0  0  0
 19 20  1  0  0  0  0
 19 21  1  0  0  0  0
 19 22  1  0  0  0  0
  9 23  1  0  0  0  0
 23 24  2  0  0  0  0
 23 25  1  0  0  0  0
 25  1  2  0  0  0  0
 25 26  1  0  0  0  0
 26 27  1  0  0  0  0
 27 28  1  0  0  0  0
 27 29  1  0  0  0  0
 27 30  1  0  0  0  0
 26 31  1  0  0  0  0
 31 32  1  0  0  0  0
 31 33  1  0  0  0  0
 31 34  1  0  0  0  0
 26 35  1  0  0  0  0
 35 36  1  0  0  0  0
 35 37  1  0  0  0  0
 35 38  1  0  0  0  0
M  END
> <ChemID>
102775

> <source_casrn>
57052-04-7

> <CAS>
57052-04-7

> <SMILES>
CSC1=NN=C(C(=O)N1/N=C/C(C)C)C(C)(C)C

> <NAME>
Isomethiozin

> <preferred_name>
Isomethiozin

> <iupac>
6-tert-butyl-4-[(E)-(2-methylpropylidene)amino]-3-(methylsulfanyl)-1,2,4-triazin-5(4H)-one

> <MPID>
27181

> <dsstox_substance_id>
DTXSID7042067

> <Canonical_QSARr>
CSC1=NN=C(C(=O)N1N=CC(C)C)C(C)(C)C

> <InChI_Code_QSARr>
InChI=1S/C12H20N4OS/c1-8(2)7-13-16-10(17)9(12(3,4)5)14-15-11(16)18-6/h7-8H,1-6H3/b13-7+

> <InChI Key_QSARr>
MZTLOILRKLUURT-NTUHNPAUSA-N

> <Salt_Solvent>
?

> <LogVP>
-6.4559

$$$$
102779
  -INDIGO-08031723152D

 21 23  0  0  0  0  0  0  0  0999 V2000
   -3.2000    2.7713    0.0000 Cl  0  0  0  0  0  0  0  0  0  0  0  0
   -2.4000    1.3856    0.0000 C   0  0  0  0  0  0  0  0  0  0  0  0
   -0.8000    1.3856    0.0000 C   0  0  0  0  0  0  0  0  0  0  0  0
    0.2707    2.5747    0.0000 O   0  0  0  0  0  0  0  0  0  0  0  0
    1.7322    1.9239    0.0000 C   0  0  0  0  0  0  0  0  0  0  0  0
    1.5651    0.3327    0.0000 C   0  0  0  0  0  0  0  0  0  0  0  0
    0.0000    0.0000    0.0000 C   0  0  0  0  0  0  0  0  0  0  0  0
   -0.8000   -1.3856    0.0000 C   0  0  0  0  0  0  0  0  0  0  0  0
    0.0000   -2.7713    0.0000 H   0  0  0  0  0  0  0  0  0  0  0  0
   -2.4000   -1.3856    0.0000 C   0  0  0  0  0  0  0  0  0  0  0  0
   -3.2000   -2.7713    0.0000 H   0  0  0  0  0  0  0  0  0  0  0  0
   -3.2000    0.0000    0.0000 C   0  0  0  0  0  0  0  0  0  0  0  0
   -4.8000    0.0000    0.0000 Cl  0  0  0  0  0  0  0  0  0  0  0  0
    2.8595   -0.6078    0.0000 C   0  0  0  0  0  0  0  0  0  0  0  0
    2.6921   -2.1990    0.0000 H   0  0  0  0  0  0  0  0  0  0  0  0
    4.3212    0.0430    0.0000 C   0  0  0  0  0  0  0  0  0  0  0  0
    5.6156   -0.8974    0.0000 Cl  0  0  0  0  0  0  0  0  0  0  0  0
    4.4883    1.6342    0.0000 C   0  0  0  0  0  0  0  0  0  0  0  0
    5.9501    2.2850    0.0000 H   0  0  0  0  0  0  0  0  0  0  0  0
    3.1939    2.5747    0.0000 C   0  0  0  0  0  0  0  0  0  0  0  0
    3.3612    4.1659    0.0000 Cl  0  0  0  0  0  0  0  0  0  0  0  0
  1  2  1  0  0  0  0
  2  3  1  0  0  0  0
  3  4  1  0  0  0  0
  4  5  1  0  0  0  0
  5  6  1  0  0  0  0
  6  7  1  0  0  0  0
  7  3  2  0  0  0  0
  7  8  1  0  0  0  0
  8  9  1  0  0  0  0
  8 10  2  0  0  0  0
 10 11  1  0  0  0  0
 10 12  1  0  0  0  0
 12  2  2  0  0  0  0
 12 13  1  0  0  0  0
  6 14  2  0  0  0  0
 14 15  1  0  0  0  0
 14 16  1  0  0  0  0
 16 17  1  0  0  0  0
 16 18  2  0  0  0  0
 18 19  1  0  0  0  0
 18 20  1  0  0  0  0
 20  5  2  0  0  0  0
 20 21  1  0  0  0  0
M  END
> <ChemID>
102779

> <source_casrn>
57117-38-1

> <CAS>
57117-38-1

> <SMILES>
Clc1cc2c(oc3c2ccc(Cl)c3Cl)c(Cl)c1

> <NAME>
DIBENZOFURAN, 2,4,6,7-TETRACHLORO-

> <preferred_name>
2,4,6,7-Tetrachlorodibenzofuran

> <iupac>
2,4,6,7-TETRACHLORODIBENZOFURAN

> <MPID>
27185

> <dsstox_substance_id>
DTXSID00205755

> <Canonical_QSARr>
Clc1cc2c(oc3c2ccc(Cl)c3Cl)c(Cl)c1

> <InChI_Code_QSARr>
InChI=1S/C12H4Cl4O/c13-5-3-7-6-1-2-8(14)10(16)12(6)17-11(7)9(15)4-5/h1-4H

> <InChI Key_QSARr>
NSDXKMRVQOSASS-UHFFFAOYSA-N

> <Salt_Solvent>
?

> <LogVP>
-7.4815

$$$$
102783
  -INDIGO-08031723152D

 24 26  0  0  0  0  0  0  0  0999 V2000
    2.7713   -1.6000    0.0000 C   0  0  0  0  0  0  0  0  0  0  0  0
    4.1569   -2.3999    0.0000 H   0  0  0  0  0  0  0  0  0  0  0  0
    1.3856   -2.3999    0.0000 C   0  0  0  0  0  0  0  0  0  0  0  0
    1.3856   -4.0000    0.0000 H   0  0  0  0  0  0  0  0  0  0  0  0
    0.0000   -1.6000    0.0000 C   0  0  0  0  0  0  0  0  0  0  0  0
    0.0000   -0.0000    0.0000 C   0  0  0  0  0  0  0  0  0  0  0  0
   -1.3857    0.8001    0.0000 N   0  0  0  0  0  0  0  0  0  0  0  0
   -0.8000    2.2889    0.0000 C   0  0  0  0  0  0  0  0  0  0  0  0
   -2.3503    2.6845    0.0000 H   0  0  0  0  0  0  0  0  0  0  0  0
   -0.6006    3.8765    0.0000 H   0  0  0  0  0  0  0  0  0  0  0  0
    0.8000    2.2889    0.0000 C   0  0  0  0  0  0  0  0  0  0  0  0
    0.6007    3.8765    0.0000 H   0  0  0  0  0  0  0  0  0  0  0  0
    2.3504    2.6845    0.0000 H   0  0  0  0  0  0  0  0  0  0  0  0
    1.3856    0.8001    0.0000 C   0  0  0  0  0  0  0  0  0  0  0  0
    2.7713   -0.0000    0.0000 C   0  0  0  0  0  0  0  0  0  0  0  0
    4.1569    0.8001    0.0000 H   0  0  0  0  0  0  0  0  0  0  0  0
   -2.7713   -0.0000    0.0000 C   0  0  0  0  0  0  0  0  0  0  0  0
   -2.7713   -1.6000    0.0000 C   0  0  0  0  0  0  0  0  0  0  0  0
   -3.3185   -3.1035    0.0000 H   0  0  0  0  0  0  0  0  0  0  0  0
   -4.3470   -1.3222    0.0000 H   0  0  0  0  0  0  0  0  0  0  0  0
   -1.3857   -2.4001    0.0000 C   0  0  0  0  0  0  0  0  0  0  0  0
   -0.3572   -3.6256    0.0000 H   0  0  0  0  0  0  0  0  0  0  0  0
   -2.4141   -3.6256    0.0000 H   0  0  0  0  0  0  0  0  0  0  0  0
   -4.1569    0.8001    0.0000 O   0  0  0  0  0  0  0  0  0  0  0  0
  1  2  1  0  0  0  0
  1  3  1  0  0  0  0
  3  4  1  0  0  0  0
  3  5  2  0  0  0  0
  5  6  1  0  0  0  0
  6  7  1  0  0  0  0
  7  8  1  0  0  0  0
  8  9  1  0  0  0  0
  8 10  1  0  0  0  0
  8 11  1  0  0  0  0
 11 12  1  0  0  0  0
 11 13  1  0  0  0  0
 11 14  1  0  0  0  0
 14  6  2  0  0  0  0
 14 15  1  0  0  0  0
 15  1  2  0  0  0  0
 15 16  1  0  0  0  0
  7 17  1  0  0  0  0
 17 18  1  0  0  0  0
 18 19  1  0  0  0  0
 18 20  1  0  0  0  0
 18 21  1  0  0  0  0
 21  5  1  0  0  0  0
 21 22  1  0  0  0  0
 21 23  1  0  0  0  0
 17 24  2  0  0  0  0
M  END
> <ChemID>
102783

> <source_casrn>
57369-32-1

> <CAS>
57369-32-1

> <SMILES>
O=C1CCc2cccc3CCN1c32

> <NAME>
PYROQUILON

> <preferred_name>
Pyroquilon

> <iupac>
1,2,5,6-tetrahydro-4H-pyrrolo[3,2,1-ij]quinolin-4-one

> <MPID>
27189

> <dsstox_substance_id>
DTXSID6058132

> <Canonical_QSARr>
O=C1CCc2cccc3CCN1c32

> <InChI_Code_QSARr>
InChI=1S/C11H11NO/c13-10-5-4-8-2-1-3-9-6-7-12(10)11(8)9/h1-3H,4-7H2

> <InChI Key_QSARr>
XRJLAOUDSILTFT-UHFFFAOYSA-N

> <Salt_Solvent>
?

> <LogVP>
-5.9208

$$$$
102787
  -INDIGO-08031723152D

 28 30  0  0  0  0  0  0  0  0999 V2000
   -1.3856    2.4000    0.0000 C   0  0  0  0  0  0  0  0  0  0  0  0
   -2.7713    1.6000    0.0000 C   0  0  0  0  0  0  0  0  0  0  0  0
   -4.1570    2.4000    0.0000 C   0  0  0  0  0  0  0  0  0  0  0  0
   -4.1570    4.0000    0.0000 H   0  0  0  0  0  0  0  0  0  0  0  0
   -5.5425    1.6000    0.0000 C   0  0  0  0  0  0  0  0  0  0  0  0
   -6.9282    2.4000    0.0000 H   0  0  0  0  0  0  0  0  0  0  0  0
   -5.5425    0.0000    0.0000 C   0  0  0  0  0  0  0  0  0  0  0  0
   -6.9282   -0.8000    0.0000 H   0  0  0  0  0  0  0  0  0  0  0  0
   -4.1570   -0.8000    0.0000 C   0  0  0  0  0  0  0  0  0  0  0  0
   -4.1570   -2.4000    0.0000 H   0  0  0  0  0  0  0  0  0  0  0  0
   -2.7713    0.0000    0.0000 C   0  0  0  0  0  0  0  0  0  0  0  0
   -1.3856   -0.8000    0.0000 C   0  0  0  0  0  0  0  0  0  0  0  0
   -1.3856   -2.4000    0.0000 O   0  0  0  0  0  0  0  0  0  0  0  0
   -0.0001    0.0000    0.0000 C   0  0  0  0  0  0  0  0  0  0  0  0
   -0.0001    1.6000    0.0000 C   0  0  0  0  0  0  0  0  0  0  0  0
    1.3856    2.4000    0.0000 C   0  0  0  0  0  0  0  0  0  0  0  0
    1.3856    4.0000    0.0000 H   0  0  0  0  0  0  0  0  0  0  0  0
    2.7713    1.6000    0.0000 C   0  0  0  0  0  0  0  0  0  0  0  0
    4.1569    2.4000    0.0000 H   0  0  0  0  0  0  0  0  0  0  0  0
    2.7713    0.0000    0.0000 C   0  0  0  0  0  0  0  0  0  0  0  0
    1.3856   -0.8000    0.0000 C   0  0  0  0  0  0  0  0  0  0  0  0
    1.3856   -2.4000    0.0000 N   0  0  0  0  0  0  0  0  0  0  0  0
    2.7713   -3.2000    0.0000 O   0  0  0  0  0  0  0  0  0  0  0  0
   -0.0001   -3.2000    0.0000 O   0  0  0  0  0  0  0  0  0  0  0  0
    4.1569   -0.8000    0.0000 N   0  0  0  0  0  0  0  0  0  0  0  0
    5.5426    0.0000    0.0000 O   0  0  0  0  0  0  0  0  0  0  0  0
    4.1569   -2.4000    0.0000 O   0  0  0  0  0  0  0  0  0  0  0  0
   -1.3856    4.0000    0.0000 O   0  0  0  0  0  0  0  0  0  0  0  0
  1  2  1  0  0  0  0
  2  3  1  0  0  0  0
  3  4  1  0  0  0  0
  3  5  2  0  0  0  0
  5  6  1  0  0  0  0
  5  7  1  0  0  0  0
  7  8  1  0  0  0  0
  7  9  2  0  0  0  0
  9 10  1  0  0  0  0
  9 11  1  0  0  0  0
 11  2  2  0  0  0  0
 11 12  1  0  0  0  0
 12 13  2  0  0  0  0
 12 14  1  0  0  0  0
 14 15  1  0  0  0  0
 15  1  1  0  0  0  0
 15 16  2  0  0  0  0
 16 17  1  0  0  0  0
 16 18  1  0  0  0  0
 18 19  1  0  0  0  0
 18 20  2  0  0  0  0
 20 21  1  0  0  0  0
 21 14  2  0  0  0  0
 21 22  1  0  0  0  0
 22 23  1  0  0  0  0
 22 24  2  0  0  0  0
 20 25  1  0  0  0  0
 25 26  1  0  0  0  0
 25 27  2  0  0  0  0
  1 28  2  0  0  0  0
M  CHG  4  22   1  23  -1  25   1  26  -1
M  END
> <ChemID>
102787

> <source_casrn>
57875-61-3

> <CAS>
NOCAS_871437

> <SMILES>
[O-][N+](=O)c1c2c(ccc1[N+]([O-])=O)C(=O)c1ccccc1C2=O

> <NAME>
1,2-DINITROANTHRAQUINONE

> <preferred_name>


> <iupac>


> <MPID>
27193

> <dsstox_substance_id>
DTXSID80871437

> <Canonical_QSARr>
[O-][N+](=O)c1c2c(ccc1[N+]([O-])=O)C(=O)c1ccccc1C2=O

> <InChI_Code_QSARr>
InChI=1S/C14H6N2O6/c17-13-7-3-1-2-4-8(7)14(18)11-9(13)5-6-10(15(19)20)12(11)16(21)22/h1-6H

> <InChI Key_QSARr>
NMNSBFYYVHREEE-UHFFFAOYSA-N

> <Salt_Solvent>
?

> <LogVP>
-11.1549

$$$$
102791
  -INDIGO-08031723152D

 21 23  0  0  0  0  0  0  0  0999 V2000
    0.0000    2.7713    0.0000 Cl  0  0  0  0  0  0  0  0  0  0  0  0
   -0.8000    1.3856    0.0000 C   0  0  0  0  0  0  0  0  0  0  0  0
    0.0000    0.0000    0.0000 C   0  0  0  0  0  0  0  0  0  0  0  0
    1.5651   -0.3327    0.0000 C   0  0  0  0  0  0  0  0  0  0  0  0
    1.7322   -1.9239    0.0000 C   0  0  0  0  0  0  0  0  0  0  0  0
    0.2707   -2.5747    0.0000 O   0  0  0  0  0  0  0  0  0  0  0  0
   -0.8000   -1.3856    0.0000 C   0  0  0  0  0  0  0  0  0  0  0  0
   -2.4000   -1.3856    0.0000 C   0  0  0  0  0  0  0  0  0  0  0  0
   -3.2000   -2.7713    0.0000 Cl  0  0  0  0  0  0  0  0  0  0  0  0
   -3.2000    0.0000    0.0000 C   0  0  0  0  0  0  0  0  0  0  0  0
   -4.8000    0.0000    0.0000 H   0  0  0  0  0  0  0  0  0  0  0  0
   -2.4000    1.3856    0.0000 C   0  0  0  0  0  0  0  0  0  0  0  0
   -3.2000    2.7713    0.0000 Cl  0  0  0  0  0  0  0  0  0  0  0  0
    3.1939   -2.5747    0.0000 C   0  0  0  0  0  0  0  0  0  0  0  0
    3.3612   -4.1659    0.0000 H   0  0  0  0  0  0  0  0  0  0  0  0
    4.4883   -1.6342    0.0000 C   0  0  0  0  0  0  0  0  0  0  0  0
    5.9501   -2.2850    0.0000 Cl  0  0  0  0  0  0  0  0  0  0  0  0
    4.3212   -0.0430    0.0000 C   0  0  0  0  0  0  0  0  0  0  0  0
    5.6156    0.8974    0.0000 Cl  0  0  0  0  0  0  0  0  0  0  0  0
    2.8595    0.6078    0.0000 C   0  0  0  0  0  0  0  0  0  0  0  0
    2.6921    2.1990    0.0000 H   0  0  0  0  0  0  0  0  0  0  0  0
  1  2  1  0  0  0  0
  2  3  1  0  0  0  0
  3  4  1  0  0  0  0
  4  5  1  0  0  0  0
  5  6  1  0  0  0  0
  6  7  1  0  0  0  0
  7  3  2  0  0  0  0
  7  8  1  0  0  0  0
  8  9  1  0  0  0  0
  8 10  2  0  0  0  0
 10 11  1  0  0  0  0
 10 12  1  0  0  0  0
 12  2  2  0  0  0  0
 12 13  1  0  0  0  0
  5 14  2  0  0  0  0
 14 15  1  0  0  0  0
 14 16  1  0  0  0  0
 16 17  1  0  0  0  0
 16 18  2  0  0  0  0
 18 19  1  0  0  0  0
 18 20  1  0  0  0  0
 20  4  2  0  0  0  0
 20 21  1  0  0  0  0
M  END
> <ChemID>
102791

> <source_casrn>
58802-15-6

> <CAS>
58802-15-6

> <SMILES>
Clc1cc2oc3c(c2cc1Cl)c(Cl)c(Cl)cc3Cl

> <NAME>
1,2,4,7,8-PENTACHLORODIBENZOFURAN

> <preferred_name>
1,2,4,7,8-Pentachlorodibenzofuran

> <iupac>
1,2,4,7,8-PENTACHLORODIBENZOFURAN

> <MPID>
27197

> <dsstox_substance_id>
DTXSID60207533

> <Canonical_QSARr>
Clc1cc2oc3c(c2cc1Cl)c(Cl)c(Cl)cc3Cl

> <InChI_Code_QSARr>
InChI=1S/C12H3Cl5O/c13-5-1-4-9(3-6(5)14)18-12-8(16)2-7(15)11(17)10(4)12/h1-3H

> <InChI Key_QSARr>
GCFDWHIKRXCUPJ-UHFFFAOYSA-N

> <Salt_Solvent>
?

> <LogVP>
-8.8239

$$$$
102795
  -INDIGO-08031723152D

 23 24  0  0  0  0  0  0  0  0999 V2000
    1.3857    0.8000    0.0000 O   0  0  0  0  0  0  0  0  0  0  0  0
    2.9613    0.5222    0.0000 C   0  0  0  0  0  0  0  0  0  0  0  0
    3.5086   -0.9813    0.0000 C   0  0  0  0  0  0  0  0  0  0  0  0
    2.4802   -2.2071    0.0000 H   0  0  0  0  0  0  0  0  0  0  0  0
    5.0842   -1.2591    0.0000 C   0  0  0  0  0  0  0  0  0  0  0  0
    5.6315   -2.7627    0.0000 H   0  0  0  0  0  0  0  0  0  0  0  0
    6.1126   -0.0335    0.0000 C   0  0  0  0  0  0  0  0  0  0  0  0
    7.6884   -0.3113    0.0000 Cl  0  0  0  0  0  0  0  0  0  0  0  0
    5.5655    1.4700    0.0000 C   0  0  0  0  0  0  0  0  0  0  0  0
    6.5940    2.6957    0.0000 H   0  0  0  0  0  0  0  0  0  0  0  0
    3.9898    1.7479    0.0000 C   0  0  0  0  0  0  0  0  0  0  0  0
    3.4426    3.2513    0.0000 Cl  0  0  0  0  0  0  0  0  0  0  0  0
   -0.0001    0.0001    0.0000 C   0  0  0  0  0  0  0  0  0  0  0  0
   -0.0001   -1.6000    0.0000 C   0  0  0  0  0  0  0  0  0  0  0  0
    1.3857   -2.4000    0.0000 H   0  0  0  0  0  0  0  0  0  0  0  0
   -1.3857   -2.4000    0.0000 C   0  0  0  0  0  0  0  0  0  0  0  0
   -1.3857   -4.0000    0.0000 H   0  0  0  0  0  0  0  0  0  0  0  0
   -2.7713   -1.6000    0.0000 C   0  0  0  0  0  0  0  0  0  0  0  0
   -4.1569   -2.4000    0.0000 Cl  0  0  0  0  0  0  0  0  0  0  0  0
   -2.7713    0.0001    0.0000 C   0  0  0  0  0  0  0  0  0  0  0  0
   -4.1569    0.8000    0.0000 H   0  0  0  0  0  0  0  0  0  0  0  0
   -1.3857    0.8000    0.0000 C   0  0  0  0  0  0  0  0  0  0  0  0
   -1.3857    2.4000    0.0000 H   0  0  0  0  0  0  0  0  0  0  0  0
  1  2  1  0  0  0  0
  2  3  1  0  0  0  0
  3  4  1  0  0  0  0
  3  5  2  0  0  0  0
  5  6  1  0  0  0  0
  5  7  1  0  0  0  0
  7  8  1  0  0  0  0
  7  9  2  0  0  0  0
  9 10  1  0  0  0  0
  9 11  1  0  0  0  0
 11  2  2  0  0  0  0
 11 12  1  0  0  0  0
  1 13  1  0  0  0  0
 13 14  1  0  0  0  0
 14 15  1  0  0  0  0
 14 16  2  0  0  0  0
 16 17  1  0  0  0  0
 16 18  1  0  0  0  0
 18 19  1  0  0  0  0
 18 20  2  0  0  0  0
 20 21  1  0  0  0  0
 20 22  1  0  0  0  0
 22 13  2  0  0  0  0
 22 23  1  0  0  0  0
M  END
> <ChemID>
102795

> <source_casrn>
59039-21-3

> <CAS>
NOCAS_872042

> <SMILES>
Clc1cc(Cl)ccc1Oc1ccc(Cl)cc1

> <NAME>
2,4,4'-Trichlorodiphenyl ether

> <preferred_name>


> <iupac>


> <MPID>
27201

> <dsstox_substance_id>
DTXSID00872042

> <Canonical_QSARr>
Clc1cc(Cl)ccc1Oc1ccc(Cl)cc1

> <InChI_Code_QSARr>
InChI=1S/C12H7Cl3O/c13-8-1-4-10(5-2-8)16-12-6-3-9(14)7-11(12)15/h1-7H

> <InChI Key_QSARr>
PIORTDHJOLELKR-UHFFFAOYSA-N

> <Salt_Solvent>
?

> <LogVP>
-3.8153

$$$$
102800
  -INDIGO-08031723152D

 39 41  0  0  0  0  0  0  0  0999 V2000
   -0.0001    0.0001    0.0000 C   0  0  0  0  0  0  0  0  0  0  0  0
    1.4128   -0.7511    0.0000 C   0  0  0  0  0  0  0  0  0  0  0  0
    2.7697    0.0968    0.0000 C   0  0  0  0  0  0  0  0  0  0  0  0
    2.9923    1.6811    0.0000 Cl  0  0  0  0  0  0  0  0  0  0  0  0
    4.1823   -0.6544    0.0000 C   0  0  0  0  0  0  0  0  0  0  0  0
    5.5392    0.1935    0.0000 H   0  0  0  0  0  0  0  0  0  0  0  0
    4.2382   -2.2535    0.0000 C   0  0  0  0  0  0  0  0  0  0  0  0
    5.6509   -3.0047    0.0000 Cl  0  0  0  0  0  0  0  0  0  0  0  0
    2.8813   -3.1014    0.0000 C   0  0  0  0  0  0  0  0  0  0  0  0
    2.9370   -4.7004    0.0000 H   0  0  0  0  0  0  0  0  0  0  0  0
    1.4685   -2.3502    0.0000 C   0  0  0  0  0  0  0  0  0  0  0  0
    0.1117   -3.1981    0.0000 H   0  0  0  0  0  0  0  0  0  0  0  0
    0.6507    1.4616    0.0000 C   0  0  0  0  0  0  0  0  0  0  0  0
    2.1850    1.0073    0.0000 H   0  0  0  0  0  0  0  0  0  0  0  0
    2.0569    2.2252    0.0000 H   0  0  0  0  0  0  0  0  0  0  0  0
   -0.2896    2.7561    0.0000 N   0  0  0  0  0  0  0  0  0  0  0  0
    0.2047    4.2778    0.0000 C   0  0  0  0  0  0  0  0  0  0  0  0
    1.7265    4.7722    0.0000 H   0  0  0  0  0  0  0  0  0  0  0  0
   -1.0896    5.2182    0.0000 N   0  0  0  0  0  0  0  0  0  0  0  0
   -2.3841    4.2778    0.0000 C   0  0  0  0  0  0  0  0  0  0  0  0
   -3.9058    4.7722    0.0000 H   0  0  0  0  0  0  0  0  0  0  0  0
   -1.8897    2.7561    0.0000 N   0  0  0  0  0  0  0  0  0  0  0  0
   -0.3327   -1.5650    0.0000 O   0  0  0  0  0  0  0  0  0  0  0  0
   -1.9238   -1.7323    0.0000 C   0  0  0  0  0  0  0  0  0  0  0  0
   -1.5912   -3.2974    0.0000 H   0  0  0  0  0  0  0  0  0  0  0  0
   -3.4457   -2.2267    0.0000 C   0  0  0  0  0  0  0  0  0  0  0  0
   -3.1541   -3.8000    0.0000 H   0  0  0  0  0  0  0  0  0  0  0  0
   -4.3518   -3.5453    0.0000 H   0  0  0  0  0  0  0  0  0  0  0  0
   -4.9290   -1.6274    0.0000 C   0  0  0  0  0  0  0  0  0  0  0  0
   -5.7411   -0.2488    0.0000 H   0  0  0  0  0  0  0  0  0  0  0  0
   -4.5285   -0.0783    0.0000 H   0  0  0  0  0  0  0  0  0  0  0  0
   -6.1898   -2.6124    0.0000 C   0  0  0  0  0  0  0  0  0  0  0  0
   -7.4508   -3.5975    0.0000 H   0  0  0  0  0  0  0  0  0  0  0  0
   -7.6734   -2.0130    0.0000 H   0  0  0  0  0  0  0  0  0  0  0  0
   -5.9672   -4.1968    0.0000 H   0  0  0  0  0  0  0  0  0  0  0  0
   -2.5747   -0.2705    0.0000 C   0  0  0  0  0  0  0  0  0  0  0  0
   -3.9602   -1.0706    0.0000 H   0  0  0  0  0  0  0  0  0  0  0  0
   -3.5152    1.0238    0.0000 H   0  0  0  0  0  0  0  0  0  0  0  0
   -1.3857    0.7999    0.0000 O   0  0  0  0  0  0  0  0  0  0  0  0
  1  2  1  0  0  0  0
  2  3  1  0  0  0  0
  3  4  1  0  0  0  0
  3  5  2  0  0  0  0
  5  6  1  0  0  0  0
  5  7  1  0  0  0  0
  7  8  1  0  0  0  0
  7  9  2  0  0  0  0
  9 10  1  0  0  0  0
  9 11  1  0  0  0  0
 11  2  2  0  0  0  0
 11 12  1  0  0  0  0
  1 13  1  0  0  0  0
 13 14  1  0  0  0  0
 13 15  1  0  0  0  0
 13 16  1  0  0  0  0
 16 17  1  0  0  0  0
 17 18  1  0  0  0  0
 17 19  2  0  0  0  0
 19 20  1  0  0  0  0
 20 21  1  0  0  0  0
 20 22  2  0  0  0  0
 22 16  1  0  0  0  0
  1 23  1  0  0  0  0
 23 24  1  0  0  0  0
 24 25  1  0  0  0  0
 24 26  1  0  0  0  0
 26 27  1  0  0  0  0
 26 28  1  0  0  0  0
 26 29  1  0  0  0  0
 29 30  1  0  0  0  0
 29 31  1  0  0  0  0
 29 32  1  0  0  0  0
 32 33  1  0  0  0  0
 32 34  1  0  0  0  0
 32 35  1  0  0  0  0
 24 36  1  0  0  0  0
 36 37  1  0  0  0  0
 36 38  1  0  0  0  0
 36 39  1  0  0  0  0
 39  1  1  0  0  0  0
M  END
> <ChemID>
102800

> <source_casrn>
60207-90-1

> <CAS>
60207-90-1

> <SMILES>
CCCC1COC(C[n]2c[n]c[n]2)(O1)c1ccc(Cl)cc1Cl

> <NAME>
PROPICONAZOLE

> <preferred_name>
Propiconazole

> <iupac>
1-{[2-(2,4-dichlorophenyl)-4-propyl-1,3-dioxolan-2-yl]methyl}-1H-1,2,4-triazole

> <MPID>
27205

> <dsstox_substance_id>
DTXSID8024280

> <Canonical_QSARr>
CCCC1COC(C[n]2c[n]c[n]2)(O1)c1ccc(Cl)cc1Cl

> <InChI_Code_QSARr>
InChI=1S/C15H17Cl2N3O2/c1-2-3-12-7-21-15(22-12,8-20-10-18-9-19-20)13-5-4-11(16)6-14(13)17/h4-6,9-10,12H,2-3,7-8H2,1H3

> <InChI Key_QSARr>
STJLVHWMYQXCPB-UHFFFAOYSA-N

> <Salt_Solvent>
?

> <LogVP>
-6.3768

$$$$
102805
  -INDIGO-08031723152D

 39 40  0  0  0  0  0  0  0  0999 V2000
   -0.0001   -1.6000    0.0000 C   0  0  0  0  0  0  0  0  0  0  0  0
   -0.0001   -3.2000    0.0000 H   0  0  0  0  0  0  0  0  0  0  0  0
    1.3856   -2.3999    0.0000 H   0  0  0  0  0  0  0  0  0  0  0  0
    1.3856   -0.8000    0.0000 H   0  0  0  0  0  0  0  0  0  0  0  0
   -0.0001    0.0001    0.0000 C   0  0  0  0  0  0  0  0  0  0  0  0
   -0.5471    1.5035    0.0000 C   0  0  0  0  0  0  0  0  0  0  0  0
   -1.0944    3.0070    0.0000 H   0  0  0  0  0  0  0  0  0  0  0  0
    0.4813    2.7292    0.0000 H   0  0  0  0  0  0  0  0  0  0  0  0
   -2.1230    1.7814    0.0000 H   0  0  0  0  0  0  0  0  0  0  0  0
    1.5758    0.2779    0.0000 C   0  0  0  0  0  0  0  0  0  0  0  0
    2.6042   -0.9479    0.0000 C   0  0  0  0  0  0  0  0  0  0  0  0
    2.6042   -2.5478    0.0000 H   0  0  0  0  0  0  0  0  0  0  0  0
    4.1799   -0.6700    0.0000 C   0  0  0  0  0  0  0  0  0  0  0  0
    5.2083   -1.8957    0.0000 H   0  0  0  0  0  0  0  0  0  0  0  0
    4.7271    0.8336    0.0000 C   0  0  0  0  0  0  0  0  0  0  0  0
    6.3028    1.1114    0.0000 H   0  0  0  0  0  0  0  0  0  0  0  0
    3.6987    2.0592    0.0000 C   0  0  0  0  0  0  0  0  0  0  0  0
    4.2459    3.5627    0.0000 H   0  0  0  0  0  0  0  0  0  0  0  0
    2.1230    1.7814    0.0000 C   0  0  0  0  0  0  0  0  0  0  0  0
    1.5758    3.2849    0.0000 H   0  0  0  0  0  0  0  0  0  0  0  0
   -1.6000    0.0001    0.0000 S   0  0  0  0  0  0  0  0  0  0  0  0
   -2.3999   -1.3856    0.0000 C   0  0  0  0  0  0  0  0  0  0  0  0
   -4.0001   -1.3856    0.0000 N   0  0  0  0  0  0  0  0  0  0  0  0
   -4.7999    0.0001    0.0000 C   0  0  0  0  0  0  0  0  0  0  0  0
   -3.2964    0.5473    0.0000 H   0  0  0  0  0  0  0  0  0  0  0  0
   -5.0779    1.5757    0.0000 H   0  0  0  0  0  0  0  0  0  0  0  0
   -6.4001    0.0001    0.0000 C   0  0  0  0  0  0  0  0  0  0  0  0
   -6.1221    1.5757    0.0000 H   0  0  0  0  0  0  0  0  0  0  0  0
   -7.9036    0.5473    0.0000 H   0  0  0  0  0  0  0  0  0  0  0  0
   -7.1999   -1.3856    0.0000 C   0  0  0  0  0  0  0  0  0  0  0  0
   -8.4257   -0.3572    0.0000 H   0  0  0  0  0  0  0  0  0  0  0  0
   -8.4257   -2.4141    0.0000 H   0  0  0  0  0  0  0  0  0  0  0  0
   -6.4001   -2.7713    0.0000 C   0  0  0  0  0  0  0  0  0  0  0  0
   -7.9036   -3.3185    0.0000 H   0  0  0  0  0  0  0  0  0  0  0  0
   -6.1221   -4.3470    0.0000 H   0  0  0  0  0  0  0  0  0  0  0  0
   -4.7999   -2.7713    0.0000 C   0  0  0  0  0  0  0  0  0  0  0  0
   -5.0779   -4.3470    0.0000 H   0  0  0  0  0  0  0  0  0  0  0  0
   -3.2964   -3.3185    0.0000 H   0  0  0  0  0  0  0  0  0  0  0  0
   -1.6000   -2.7713    0.0000 O   0  0  0  0  0  0  0  0  0  0  0  0
  1  2  1  0  0  0  0
  1  3  1  0  0  0  0
  1  4  1  0  0  0  0
  1  5  1  0  0  0  0
  5  6  1  0  0  0  0
  6  7  1  0  0  0  0
  6  8  1  0  0  0  0
  6  9  1  0  0  0  0
  5 10  1  0  0  0  0
 10 11  1  0  0  0  0
 11 12  1  0  0  0  0
 11 13  2  0  0  0  0
 13 14  1  0  0  0  0
 13 15  1  0  0  0  0
 15 16  1  0  0  0  0
 15 17  2  0  0  0  0
 17 18  1  0  0  0  0
 17 19  1  0  0  0  0
 19 10  2  0  0  0  0
 19 20  1  0  0  0  0
  5 21  1  0  0  0  0
 21 22  1  0  0  0  0
 22 23  1  0  0  0  0
 23 24  1  0  0  0  0
 24 25  1  0  0  0  0
 24 26  1  0  0  0  0
 24 27  1  0  0  0  0
 27 28  1  0  0  0  0
 27 29  1  0  0  0  0
 27 30  1  0  0  0  0
 30 31  1  0  0  0  0
 30 32  1  0  0  0  0
 30 33  1  0  0  0  0
 33 34  1  0  0  0  0
 33 35  1  0  0  0  0
 33 36  1  0  0  0  0
 36 23  1  0  0  0  0
 36 37  1  0  0  0  0
 36 38  1  0  0  0  0
 22 39  2  0  0  0  0
M  END
> <ChemID>
102805

> <source_casrn>
61432-55-1

> <CAS>
61432-55-1

> <SMILES>
CC(C)(SC(=O)N1CCCCC1)c1ccccc1

> <NAME>
Dimepiperate

> <preferred_name>
Dimepiperate

> <iupac>
S-(2-phenylpropan-2-yl) piperidine-1-carbothioate

> <MPID>
27209

> <dsstox_substance_id>
DTXSID5058141

> <Canonical_QSARr>
CC(C)(SC(=O)N1CCCCC1)c1ccccc1

> <InChI_Code_QSARr>
InChI=1S/C15H21NOS/c1-15(2,13-9-5-3-6-10-13)18-14(17)16-11-7-4-8-12-16/h3,5-6,9-10H,4,7-8,11-12H2,1-2H3

> <InChI Key_QSARr>
BWUPSGJXXPATLU-UHFFFAOYSA-N

> <Salt_Solvent>
?

> <LogVP>
-5.3979

$$$$
102809
  -INDIGO-08031723152D

 27 26  0  0  0  0  0  0  0  0999 V2000
    4.7999   -2.7712    0.0000 C   0  0  0  0  0  0  0  0  0  0  0  0
    5.6000   -4.1569    0.0000 H   0  0  0  0  0  0  0  0  0  0  0  0
    6.4000   -2.7712    0.0000 H   0  0  0  0  0  0  0  0  0  0  0  0
    3.9999   -4.1569    0.0000 H   0  0  0  0  0  0  0  0  0  0  0  0
    3.9999   -1.3856    0.0000 C   0  0  0  0  0  0  0  0  0  0  0  0
    2.3999   -1.3856    0.0000 C   0  0  0  0  0  0  0  0  0  0  0  0
    1.6001   -2.7713    0.0000 H   0  0  0  0  0  0  0  0  0  0  0  0
    1.6001   -0.0001    0.0000 O   0  0  0  0  0  0  0  0  0  0  0  0
    0.0001   -0.0001    0.0000 P   0  0  0  0  0  0  0  0  0  0  0  0
   -1.6000   -0.0001    0.0000 O   0  0  0  0  0  0  0  0  0  0  0  0
   -2.4000   -1.3856    0.0000 C   0  0  0  0  0  0  0  0  0  0  0  0
   -4.0000   -1.3856    0.0000 H   0  0  0  0  0  0  0  0  0  0  0  0
   -3.2000   -2.7713    0.0000 H   0  0  0  0  0  0  0  0  0  0  0  0
   -1.6000   -2.7713    0.0000 H   0  0  0  0  0  0  0  0  0  0  0  0
   -0.8000    1.3856    0.0000 O   0  0  0  0  0  0  0  0  0  0  0  0
    0.0001    2.7713    0.0000 C   0  0  0  0  0  0  0  0  0  0  0  0
    0.8001    4.1569    0.0000 H   0  0  0  0  0  0  0  0  0  0  0  0
   -0.8000    4.1569    0.0000 H   0  0  0  0  0  0  0  0  0  0  0  0
    1.6001    2.7713    0.0000 H   0  0  0  0  0  0  0  0  0  0  0  0
   -0.8000   -1.3856    0.0000 S   0  0  0  0  0  0  0  0  0  0  0  0
    4.7999    0.0001    0.0000 C   0  0  0  0  0  0  0  0  0  0  0  0
    3.9999    1.3856    0.0000 O   0  0  0  0  0  0  0  0  0  0  0  0
    6.4000    0.0001    0.0000 O   0  0  0  0  0  0  0  0  0  0  0  0
    7.2000    1.3856    0.0000 C   0  0  0  0  0  0  0  0  0  0  0  0
    8.0000    2.7713    0.0000 H   0  0  0  0  0  0  0  0  0  0  0  0
    8.8000    1.3856    0.0000 H   0  0  0  0  0  0  0  0  0  0  0  0
    6.4000    2.7713    0.0000 H   0  0  0  0  0  0  0  0  0  0  0  0
  1  2  1  0  0  0  0
  1  3  1  0  0  0  0
  1  4  1  0  0  0  0
  1  5  1  0  0  0  0
  5  6  2  0  0  0  0
  6  7  1  0  0  0  0
  6  8  1  0  0  0  0
  8  9  1  0  0  0  0
  9 10  1  0  0  0  0
 10 11  1  0  0  0  0
 11 12  1  0  0  0  0
 11 13  1  0  0  0  0
 11 14  1  0  0  0  0
  9 15  1  0  0  0  0
 15 16  1  0  0  0  0
 16 17  1  0  0  0  0
 16 18  1  0  0  0  0
 16 19  1  0  0  0  0
  9 20  2  0  0  0  0
  5 21  1  0  0  0  0
 21 22  2  0  0  0  0
 21 23  1  0  0  0  0
 23 24  1  0  0  0  0
 24 25  1  0  0  0  0
 24 26  1  0  0  0  0
 24 27  1  0  0  0  0
M  END
> <ChemID>
102809

> <source_casrn>
62610-77-9

> <CAS>
62610-77-9

> <SMILES>
C/C(=C\OP(=S)(OC)OC)/C(=O)OC

> <NAME>
Methacrifos

> <preferred_name>
Methacrifos

> <iupac>
methyl (2E)-3-[(dimethoxyphosphorothioyl)oxy]-2-methylacrylate

> <MPID>
27213

> <dsstox_substance_id>
DTXSID0058144

> <Canonical_QSARr>
CC(=COP(=S)(OC)OC)C(=O)OC

> <InChI_Code_QSARr>
InChI=1S/C7H13O5PS/c1-6(7(8)9-2)5-12-13(14,10-3)11-4/h5H,1-4H3/b6-5-

> <InChI Key_QSARr>
NTAHCMPOMKHKEU-WAYWQWQTSA-N

> <Salt_Solvent>
?

> <LogVP>
-2.9208

$$$$
102814
  -INDIGO-08031723152D

 34 35  0  0  0  0  0  0  0  0999 V2000
    0.0001    1.6001    0.0000 C   0  0  0  0  0  0  0  0  0  0  0  0
    0.5542    1.9200    0.0000 N   0  0  0  0  0  0  0  0  0  0  0  0
    0.5542    3.5200    0.0000 O   0  0  0  0  0  0  0  0  0  0  0  0
    1.9400    1.1200    0.0000 O   0  0  0  0  0  0  0  0  0  0  0  0
    0.0001   -0.0001    0.0000 C   0  0  0  0  0  0  0  0  0  0  0  0
    1.3856   -0.8000    0.0000 N   0  0  0  0  0  0  0  0  0  0  0  0
    2.8891   -0.2527    0.0000 C   0  0  0  0  0  0  0  0  0  0  0  0
    3.1670    1.3230    0.0000 C   0  0  0  0  0  0  0  0  0  0  0  0
    1.9414    2.3514    0.0000 Br  0  0  0  0  0  0  0  0  0  0  0  0
    4.6704    1.8702    0.0000 C   0  0  0  0  0  0  0  0  0  0  0  0
    4.9483    3.4458    0.0000 H   0  0  0  0  0  0  0  0  0  0  0  0
    5.8962    0.8417    0.0000 C   0  0  0  0  0  0  0  0  0  0  0  0
    7.3997    1.3889    0.0000 Br  0  0  0  0  0  0  0  0  0  0  0  0
    5.6184   -0.7340    0.0000 C   0  0  0  0  0  0  0  0  0  0  0  0
    6.8439   -1.7624    0.0000 H   0  0  0  0  0  0  0  0  0  0  0  0
    4.1149   -1.2812    0.0000 C   0  0  0  0  0  0  0  0  0  0  0  0
    3.8370   -2.8569    0.0000 Br  0  0  0  0  0  0  0  0  0  0  0  0
    1.1078   -2.3757    0.0000 C   0  0  0  0  0  0  0  0  0  0  0  0
    2.3336   -3.4042    0.0000 H   0  0  0  0  0  0  0  0  0  0  0  0
    0.8299   -3.9514    0.0000 H   0  0  0  0  0  0  0  0  0  0  0  0
    2.6112   -1.8285    0.0000 H   0  0  0  0  0  0  0  0  0  0  0  0
   -1.3857   -0.8000    0.0000 C   0  0  0  0  0  0  0  0  0  0  0  0
   -1.3857   -2.4000    0.0000 C   0  0  0  0  0  0  0  0  0  0  0  0
   -1.3857   -4.0000    0.0000 F   0  0  0  0  0  0  0  0  0  0  0  0
   -2.7712   -3.1999    0.0000 F   0  0  0  0  0  0  0  0  0  0  0  0
    0.0001   -3.1999    0.0000 F   0  0  0  0  0  0  0  0  0  0  0  0
   -2.7712    0.0001    0.0000 C   0  0  0  0  0  0  0  0  0  0  0  0
   -4.1570   -0.8000    0.0000 H   0  0  0  0  0  0  0  0  0  0  0  0
   -2.7712    1.6001    0.0000 C   0  0  0  0  0  0  0  0  0  0  0  0
   -4.1570    2.4000    0.0000 N   0  0  0  0  0  0  0  0  0  0  0  0
   -4.1570    4.0000    0.0000 O   0  0  0  0  0  0  0  0  0  0  0  0
   -5.5426    1.6001    0.0000 O   0  0  0  0  0  0  0  0  0  0  0  0
   -1.3857    2.4000    0.0000 C   0  0  0  0  0  0  0  0  0  0  0  0
   -1.3857    4.0000    0.0000 H   0  0  0  0  0  0  0  0  0  0  0  0
  1  2  1  0  0  0  0
  2  3  1  0  0  0  0
  2  4  2  0  0  0  0
  1  5  1  0  0  0  0
  5  6  1  0  0  0  0
  6  7  1  0  0  0  0
  7  8  1  0  0  0  0
  8  9  1  0  0  0  0
  8 10  2  0  0  0  0
 10 11  1  0  0  0  0
 10 12  1  0  0  0  0
 12 13  1  0  0  0  0
 12 14  2  0  0  0  0
 14 15  1  0  0  0  0
 14 16  1  0  0  0  0
 16  7  2  0  0  0  0
 16 17  1  0  0  0  0
  6 18  1  0  0  0  0
 18 19  1  0  0  0  0
 18 20  1  0  0  0  0
 18 21  1  0  0  0  0
  5 22  2  0  0  0  0
 22 23  1  0  0  0  0
 23 24  1  0  0  0  0
 23 25  1  0  0  0  0
 23 26  1  0  0  0  0
 22 27  1  0  0  0  0
 27 28  1  0  0  0  0
 27 29  2  0  0  0  0
 29 30  1  0  0  0  0
 30 31  1  0  0  0  0
 30 32  2  0  0  0  0
 29 33  1  0  0  0  0
 33  1  2  0  0  0  0
 33 34  1  0  0  0  0
M  CHG  4   2   1   3  -1  30   1  31  -1
M  END
> <ChemID>
102814

> <source_casrn>
63333-35-7

> <CAS>
63333-35-7

> <SMILES>
CN(c1c(Br)cc(Br)cc1Br)c1c(cc(cc1C(F)(F)F)[N+]([O-])=O)[N+]([O-])=O

> <NAME>
BROMETHALIN

> <preferred_name>
Bromethalin

> <iupac>
2,4,6-tribromo-N-[2,4-dinitro-6-(trifluoromethyl)phenyl]-N-methylaniline

> <MPID>
27218

> <dsstox_substance_id>
DTXSID8032590

> <Canonical_QSARr>
CN(c1c(Br)cc(Br)cc1Br)c1c(cc(cc1C(F)(F)F)[N+]([O-])=O)[N+]([O-])=O

> <InChI_Code_QSARr>
InChI=1S/C14H7Br3F3N3O4/c1-21(13-9(16)2-6(15)3-10(13)17)12-8(14(18,19)20)4-7(22(24)25)5-11(12)23(26)27/h2-5H,1H3

> <InChI Key_QSARr>
USMZPYXTVKAYST-UHFFFAOYSA-N

> <Salt_Solvent>
?

> <LogVP>
-7.0132

$$$$
102818
  -INDIGO-08031723152D

 42 44  0  0  0  0  0  0  0  0999 V2000
   -2.5747    0.2706    0.0000 O   0  0  0  0  0  0  0  0  0  0  0  0
   -2.2419   -1.2945    0.0000 C   0  0  0  0  0  0  0  0  0  0  0  0
   -2.2419   -2.8944    0.0000 H   0  0  0  0  0  0  0  0  0  0  0  0
   -3.8332   -1.4617    0.0000 C   0  0  0  0  0  0  0  0  0  0  0  0
   -5.1975   -0.6256    0.0000 H   0  0  0  0  0  0  0  0  0  0  0  0
   -4.2067    0.0941    0.0000 H   0  0  0  0  0  0  0  0  0  0  0  0
   -4.4839   -2.9233    0.0000 C   0  0  0  0  0  0  0  0  0  0  0  0
   -5.1347   -4.3851    0.0000 H   0  0  0  0  0  0  0  0  0  0  0  0
   -6.0753   -3.0906    0.0000 H   0  0  0  0  0  0  0  0  0  0  0  0
   -3.5437   -4.2177    0.0000 H   0  0  0  0  0  0  0  0  0  0  0  0
   -0.6509   -1.4617    0.0000 O   0  0  0  0  0  0  0  0  0  0  0  0
   -0.0002    0.0001    0.0000 C   0  0  0  0  0  0  0  0  0  0  0  0
    0.9404    1.2945    0.0000 H   0  0  0  0  0  0  0  0  0  0  0  0
    1.3856   -0.8000    0.0000 C   0  0  0  0  0  0  0  0  0  0  0  0
    1.9978   -2.2782    0.0000 H   0  0  0  0  0  0  0  0  0  0  0  0
    0.7734   -2.2782    0.0000 H   0  0  0  0  0  0  0  0  0  0  0  0
    2.7714    0.0001    0.0000 O   0  0  0  0  0  0  0  0  0  0  0  0
    4.1569   -0.8000    0.0000 C   0  0  0  0  0  0  0  0  0  0  0  0
    4.1569   -2.4000    0.0000 C   0  0  0  0  0  0  0  0  0  0  0  0
    2.7714   -3.2000    0.0000 H   0  0  0  0  0  0  0  0  0  0  0  0
    5.5426   -3.2000    0.0000 C   0  0  0  0  0  0  0  0  0  0  0  0
    5.5426   -4.8000    0.0000 H   0  0  0  0  0  0  0  0  0  0  0  0
    6.9281   -2.4000    0.0000 C   0  0  0  0  0  0  0  0  0  0  0  0
    8.3139   -3.2000    0.0000 O   0  0  0  0  0  0  0  0  0  0  0  0
    9.8894   -2.9222    0.0000 C   0  0  0  0  0  0  0  0  0  0  0  0
   10.9181   -4.1479    0.0000 C   0  0  0  0  0  0  0  0  0  0  0  0
   10.3709   -5.6513    0.0000 H   0  0  0  0  0  0  0  0  0  0  0  0
   12.4936   -3.8700    0.0000 C   0  0  0  0  0  0  0  0  0  0  0  0
   13.5223   -5.0956    0.0000 H   0  0  0  0  0  0  0  0  0  0  0  0
   13.0408   -2.3665    0.0000 C   0  0  0  0  0  0  0  0  0  0  0  0
   14.6166   -2.0886    0.0000 H   0  0  0  0  0  0  0  0  0  0  0  0
   12.0124   -1.1408    0.0000 C   0  0  0  0  0  0  0  0  0  0  0  0
   12.5596    0.3627    0.0000 H   0  0  0  0  0  0  0  0  0  0  0  0
   10.4369   -1.4186    0.0000 C   0  0  0  0  0  0  0  0  0  0  0  0
    9.4082   -0.1930    0.0000 H   0  0  0  0  0  0  0  0  0  0  0  0
    6.9281   -0.8000    0.0000 C   0  0  0  0  0  0  0  0  0  0  0  0
    8.3139    0.0001    0.0000 H   0  0  0  0  0  0  0  0  0  0  0  0
    5.5426    0.0001    0.0000 C   0  0  0  0  0  0  0  0  0  0  0  0
    5.5426    1.6000    0.0000 H   0  0  0  0  0  0  0  0  0  0  0  0
   -1.1889    1.0706    0.0000 C   0  0  0  0  0  0  0  0  0  0  0  0
   -0.0002    2.1412    0.0000 H   0  0  0  0  0  0  0  0  0  0  0  0
   -2.1295    2.3650    0.0000 H   0  0  0  0  0  0  0  0  0  0  0  0
  1  2  1  0  0  0  0
  2  3  1  0  0  0  0
  2  4  1  0  0  0  0
  4  5  1  0  0  0  0
  4  6  1  0  0  0  0
  4  7  1  0  0  0  0
  7  8  1  0  0  0  0
  7  9  1  0  0  0  0
  7 10  1  0  0  0  0
  2 11  1  0  0  0  0
 11 12  1  0  0  0  0
 12 13  1  0  0  0  0
 12 14  1  0  0  0  0
 14 15  1  0  0  0  0
 14 16  1  0  0  0  0
 14 17  1  0  0  0  0
 17 18  1  0  0  0  0
 18 19  1  0  0  0  0
 19 20  1  0  0  0  0
 19 21  2  0  0  0  0
 21 22  1  0  0  0  0
 21 23  1  0  0  0  0
 23 24  1  0  0  0  0
 24 25  1  0  0  0  0
 25 26  1  0  0  0  0
 26 27  1  0  0  0  0
 26 28  2  0  0  0  0
 28 29  1  0  0  0  0
 28 30  1  0  0  0  0
 30 31  1  0  0  0  0
 30 32  2  0  0  0  0
 32 33  1  0  0  0  0
 32 34  1  0  0  0  0
 34 25  2  0  0  0  0
 34 35  1  0  0  0  0
 23 36  2  0  0  0  0
 36 37  1  0  0  0  0
 36 38  1  0  0  0  0
 38 18  2  0  0  0  0
 38 39  1  0  0  0  0
 12 40  1  0  0  0  0
 40  1  1  0  0  0  0
 40 41  1  0  0  0  0
 40 42  1  0  0  0  0
M  END
> <ChemID>
102818

> <source_casrn>
63837-33-2

> <CAS>
63837-33-2

> <SMILES>
CCC1OC(CO1)COc1ccc(cc1)Oc1ccccc1

> <NAME>
DIOFENOLAN

> <preferred_name>
Diofenolan

> <iupac>
2-ethyl-4-[(4-phenoxyphenoxy)methyl]-1,3-dioxolane

> <MPID>
27222

> <dsstox_substance_id>
DTXSID2041884

> <Canonical_QSARr>
CCC1OC(CO1)COc1ccc(cc1)Oc1ccccc1

> <InChI_Code_QSARr>
InChI=1S/C18H20O4/c1-2-18-20-13-17(22-18)12-19-14-8-10-16(11-9-14)21-15-6-4-3-5-7-15/h3-11,17-18H,2,12-13H2,1H3

> <InChI Key_QSARr>
ZDOOQPFIGYHZFV-UHFFFAOYSA-N

> <Salt_Solvent>
?

> <LogVP>
-6.0835

$$$$
102824
  -INDIGO-08031723152D

 34 35  0  0  0  0  0  0  0  0999 V2000
   -5.5425    0.0000    0.0000 C   0  0  0  0  0  0  0  0  0  0  0  0
   -4.1569    0.8000    0.0000 N   0  0  0  0  0  0  0  0  0  0  0  0
   -4.1569    2.4000    0.0000 H   0  0  0  0  0  0  0  0  0  0  0  0
   -2.7713    0.0000    0.0000 C   0  0  0  0  0  0  0  0  0  0  0  0
   -1.3857    0.8000    0.0000 N   0  0  0  0  0  0  0  0  0  0  0  0
   -1.3857    2.4000    0.0000 H   0  0  0  0  0  0  0  0  0  0  0  0
   -0.0001    0.0000    0.0000 C   0  0  0  0  0  0  0  0  0  0  0  0
   -0.0001   -1.6000    0.0000 C   0  0  0  0  0  0  0  0  0  0  0  0
   -1.3857   -2.4001    0.0000 H   0  0  0  0  0  0  0  0  0  0  0  0
    1.3855   -2.4001    0.0000 C   0  0  0  0  0  0  0  0  0  0  0  0
    1.3855   -4.0000    0.0000 H   0  0  0  0  0  0  0  0  0  0  0  0
    2.7714   -1.6000    0.0000 C   0  0  0  0  0  0  0  0  0  0  0  0
    4.1570   -2.4001    0.0000 O   0  0  0  0  0  0  0  0  0  0  0  0
    5.5426   -1.6000    0.0000 C   0  0  0  0  0  0  0  0  0  0  0  0
    6.9282   -2.4001    0.0000 F   0  0  0  0  0  0  0  0  0  0  0  0
    6.9282   -0.8000    0.0000 F   0  0  0  0  0  0  0  0  0  0  0  0
    5.5426   -3.2000    0.0000 F   0  0  0  0  0  0  0  0  0  0  0  0
    2.7714    0.0000    0.0000 C   0  0  0  0  0  0  0  0  0  0  0  0
    4.1570    0.8000    0.0000 H   0  0  0  0  0  0  0  0  0  0  0  0
    1.3855    0.8000    0.0000 C   0  0  0  0  0  0  0  0  0  0  0  0
    1.3855    2.4000    0.0000 H   0  0  0  0  0  0  0  0  0  0  0  0
   -2.7713   -1.6000    0.0000 O   0  0  0  0  0  0  0  0  0  0  0  0
   -6.9283    0.8000    0.0000 C   0  0  0  0  0  0  0  0  0  0  0  0
   -6.9283    2.4000    0.0000 C   0  0  0  0  0  0  0  0  0  0  0  0
   -5.5425    3.2001    0.0000 Cl  0  0  0  0  0  0  0  0  0  0  0  0
   -8.3139    3.2001    0.0000 C   0  0  0  0  0  0  0  0  0  0  0  0
   -8.3139    4.8000    0.0000 H   0  0  0  0  0  0  0  0  0  0  0  0
   -9.6995    2.4000    0.0000 C   0  0  0  0  0  0  0  0  0  0  0  0
  -11.0851    3.2001    0.0000 H   0  0  0  0  0  0  0  0  0  0  0  0
   -9.6995    0.8000    0.0000 C   0  0  0  0  0  0  0  0  0  0  0  0
  -11.0851    0.0000    0.0000 H   0  0  0  0  0  0  0  0  0  0  0  0
   -8.3139    0.0000    0.0000 C   0  0  0  0  0  0  0  0  0  0  0  0
   -8.3139   -1.6000    0.0000 H   0  0  0  0  0  0  0  0  0  0  0  0
   -5.5425   -1.6000    0.0000 O   0  0  0  0  0  0  0  0  0  0  0  0
  1  2  1  0  0  0  0
  2  3  1  0  0  0  0
  2  4  1  0  0  0  0
  4  5  1  0  0  0  0
  5  6  1  0  0  0  0
  5  7  1  0  0  0  0
  7  8  1  0  0  0  0
  8  9  1  0  0  0  0
  8 10  2  0  0  0  0
 10 11  1  0  0  0  0
 10 12  1  0  0  0  0
 12 13  1  0  0  0  0
 13 14  1  0  0  0  0
 14 15  1  0  0  0  0
 14 16  1  0  0  0  0
 14 17  1  0  0  0  0
 12 18  2  0  0  0  0
 18 19  1  0  0  0  0
 18 20  1  0  0  0  0
 20  7  2  0  0  0  0
 20 21  1  0  0  0  0
  4 22  2  0  0  0  0
  1 23  1  0  0  0  0
 23 24  1  0  0  0  0
 24 25  1  0  0  0  0
 24 26  2  0  0  0  0
 26 27  1  0  0  0  0
 26 28  1  0  0  0  0
 28 29  1  0  0  0  0
 28 30  2  0  0  0  0
 30 31  1  0  0  0  0
 30 32  1  0  0  0  0
 32 23  2  0  0  0  0
 32 33  1  0  0  0  0
  1 34  2  0  0  0  0
M  END
> <ChemID>
102824

> <source_casrn>
64628-44-0

> <CAS>
64628-44-0

> <SMILES>
O=C(Nc1ccc(cc1)OC(F)(F)F)NC(=O)c1ccccc1Cl

> <NAME>
Triflumuron

> <preferred_name>
Triflumuron

> <iupac>
2-chloro-N-{[4-(trifluoromethoxy)phenyl]carbamoyl}benzamide

> <MPID>
27227

> <dsstox_substance_id>
DTXSID5034355

> <Canonical_QSARr>
O=C(Nc1ccc(cc1)OC(F)(F)F)NC(=O)c1ccccc1Cl

> <InChI_Code_QSARr>
InChI=1S/C15H10ClF3N2O3/c16-12-4-2-1-3-11(12)13(22)21-14(23)20-9-5-7-10(8-6-9)24-15(17,18)19/h1-8H,(H2,20,21,22,23)

> <InChI Key_QSARr>
XAIPTRIXGHTTNT-UHFFFAOYSA-N

> <Salt_Solvent>
?

> <LogVP>
-9.5229

$$$$
102828
  -INDIGO-08031723152D

 44 46  0  0  0  0  0  0  0  0999 V2000
    2.5840    1.3166    0.0000 C   0  0  0  0  0  0  0  0  0  0  0  0
    3.4321   -0.0402    0.0000 O   0  0  0  0  0  0  0  0  0  0  0  0
    0.9852    1.2608    0.0000 N   0  0  0  0  0  0  0  0  0  0  0  0
    0.3856    2.7444    0.0000 C   0  0  0  0  0  0  0  0  0  0  0  0
    1.0744    4.1884    0.0000 H   0  0  0  0  0  0  0  0  0  0  0  0
    1.8938    3.2784    0.0000 H   0  0  0  0  0  0  0  0  0  0  0  0
   -1.0270    3.4955    0.0000 C   0  0  0  0  0  0  0  0  0  0  0  0
   -2.3839    2.6475    0.0000 C   0  0  0  0  0  0  0  0  0  0  0  0
   -2.3281    1.0485    0.0000 H   0  0  0  0  0  0  0  0  0  0  0  0
   -3.7965    3.3987    0.0000 C   0  0  0  0  0  0  0  0  0  0  0  0
   -5.1535    2.5508    0.0000 H   0  0  0  0  0  0  0  0  0  0  0  0
   -3.8524    4.9978    0.0000 C   0  0  0  0  0  0  0  0  0  0  0  0
   -5.2652    5.7490    0.0000 Cl  0  0  0  0  0  0  0  0  0  0  0  0
   -2.4956    5.8457    0.0000 C   0  0  0  0  0  0  0  0  0  0  0  0
   -2.5514    7.4447    0.0000 H   0  0  0  0  0  0  0  0  0  0  0  0
   -1.0828    5.0945    0.0000 C   0  0  0  0  0  0  0  0  0  0  0  0
    0.2739    5.9424    0.0000 H   0  0  0  0  0  0  0  0  0  0  0  0
    0.0000   -0.0001    0.0000 C   0  0  0  0  0  0  0  0  0  0  0  0
   -0.9405    1.2944    0.0000 H   0  0  0  0  0  0  0  0  0  0  0  0
    1.1890   -1.0705    0.0000 C   0  0  0  0  0  0  0  0  0  0  0  0
    2.1295    0.2238    0.0000 H   0  0  0  0  0  0  0  0  0  0  0  0
    2.5746   -1.8706    0.0000 H   0  0  0  0  0  0  0  0  0  0  0  0
    0.5382   -2.5323    0.0000 C   0  0  0  0  0  0  0  0  0  0  0  0
    2.0600   -3.0267    0.0000 H   0  0  0  0  0  0  0  0  0  0  0  0
    0.2055   -4.0973    0.0000 H   0  0  0  0  0  0  0  0  0  0  0  0
   -1.0531   -2.3650    0.0000 C   0  0  0  0  0  0  0  0  0  0  0  0
   -1.0531   -3.9651    0.0000 H   0  0  0  0  0  0  0  0  0  0  0  0
   -2.6441   -2.5323    0.0000 H   0  0  0  0  0  0  0  0  0  0  0  0
   -1.3855   -0.8000    0.0000 C   0  0  0  0  0  0  0  0  0  0  0  0
   -2.9073   -1.2944    0.0000 H   0  0  0  0  0  0  0  0  0  0  0  0
   -2.6801    0.1405    0.0000 H   0  0  0  0  0  0  0  0  0  0  0  0
    3.3353    2.7294    0.0000 N   0  0  0  0  0  0  0  0  0  0  0  0
    2.4874    4.0863    0.0000 H   0  0  0  0  0  0  0  0  0  0  0  0
    4.9343    2.7853    0.0000 C   0  0  0  0  0  0  0  0  0  0  0  0
    5.6854    4.1979    0.0000 C   0  0  0  0  0  0  0  0  0  0  0  0
    4.8375    5.5547    0.0000 H   0  0  0  0  0  0  0  0  0  0  0  0
    7.2844    4.2537    0.0000 C   0  0  0  0  0  0  0  0  0  0  0  0
    8.0357    5.6664    0.0000 H   0  0  0  0  0  0  0  0  0  0  0  0
    8.1323    2.8969    0.0000 C   0  0  0  0  0  0  0  0  0  0  0  0
    9.7313    2.9527    0.0000 H   0  0  0  0  0  0  0  0  0  0  0  0
    7.3812    1.4841    0.0000 C   0  0  0  0  0  0  0  0  0  0  0  0
    8.2291    0.1273    0.0000 H   0  0  0  0  0  0  0  0  0  0  0  0
    5.7822    1.4283    0.0000 C   0  0  0  0  0  0  0  0  0  0  0  0
    5.0309    0.0156    0.0000 H   0  0  0  0  0  0  0  0  0  0  0  0
  1  2  2  0  0  0  0
  1  3  1  0  0  0  0
  3  4  1  0  0  0  0
  4  5  1  0  0  0  0
  4  6  1  0  0  0  0
  4  7  1  0  0  0  0
  7  8  1  0  0  0  0
  8  9  1  0  0  0  0
  8 10  2  0  0  0  0
 10 11  1  0  0  0  0
 10 12  1  0  0  0  0
 12 13  1  0  0  0  0
 12 14  2  0  0  0  0
 14 15  1  0  0  0  0
 14 16  1  0  0  0  0
 16  7  2  0  0  0  0
 16 17  1  0  0  0  0
  3 18  1  0  0  0  0
 18 19  1  0  0  0  0
 18 20  1  0  0  0  0
 20 21  1  0  0  0  0
 20 22  1  0  0  0  0
 20 23  1  0  0  0  0
 23 24  1  0  0  0  0
 23 25  1  0  0  0  0
 23 26  1  0  0  0  0
 26 27  1  0  0  0  0
 26 28  1  0  0  0  0
 26 29  1  0  0  0  0
 29 18  1  0  0  0  0
 29 30  1  0  0  0  0
 29 31  1  0  0  0  0
  1 32  1  0  0  0  0
 32 33  1  0  0  0  0
 32 34  1  0  0  0  0
 34 35  1  0  0  0  0
 35 36  1  0  0  0  0
 35 37  2  0  0  0  0
 37 38  1  0  0  0  0
 37 39  1  0  0  0  0
 39 40  1  0  0  0  0
 39 41  2  0  0  0  0
 41 42  1  0  0  0  0
 41 43  1  0  0  0  0
 43 34  2  0  0  0  0
 43 44  1  0  0  0  0
M  END
> <ChemID>
102828

> <source_casrn>
66063-05-6

> <CAS>
66063-05-6

> <SMILES>
O=C(Nc1ccccc1)N(Cc1ccc(Cl)cc1)C1CCCC1

> <NAME>
PENCYCURON

> <preferred_name>
Pencycuron

> <iupac>
1-(4-chlorobenzyl)-1-cyclopentyl-3-phenylurea

> <MPID>
27231

> <dsstox_substance_id>
DTXSID3042261

> <Canonical_QSARr>
O=C(Nc1ccccc1)N(Cc1ccc(Cl)cc1)C1CCCC1

> <InChI_Code_QSARr>
InChI=1S/C19H21ClN2O/c20-16-12-10-15(11-13-16)14-22(18-8-4-5-9-18)19(23)21-17-6-2-1-3-7-17/h1-3,6-7,10-13,18H,4-5,8-9,14H2,(H,21,23)

> <InChI Key_QSARr>
OGYFATSSENRIKG-UHFFFAOYSA-N

> <Salt_Solvent>
?

> <LogVP>
-11.426

$$$$
102833
  -INDIGO-08031723152D

 39 40  0  0  0  0  0  0  0  0999 V2000
   -9.6994   -0.8000    0.0000 C   0  0  0  0  0  0  0  0  0  0  0  0
   -8.3138   -0.0000    0.0000 C   0  0  0  0  0  0  0  0  0  0  0  0
   -6.9283   -0.8000    0.0000 N   0  0  0  0  0  0  0  0  0  0  0  0
   -6.9283   -2.4000    0.0000 H   0  0  0  0  0  0  0  0  0  0  0  0
   -5.5424   -0.0000    0.0000 C   0  0  0  0  0  0  0  0  0  0  0  0
   -4.1569   -0.8000    0.0000 C   0  0  0  0  0  0  0  0  0  0  0  0
   -4.1569   -2.4000    0.0000 H   0  0  0  0  0  0  0  0  0  0  0  0
   -2.7713   -0.0000    0.0000 C   0  0  0  0  0  0  0  0  0  0  0  0
   -1.3857   -0.8000    0.0000 O   0  0  0  0  0  0  0  0  0  0  0  0
    0.0001   -0.0000    0.0000 C   0  0  0  0  0  0  0  0  0  0  0  0
   -0.8001    1.3856    0.0000 H   0  0  0  0  0  0  0  0  0  0  0  0
    1.3857    0.8000    0.0000 C   0  0  0  0  0  0  0  0  0  0  0  0
    2.7713    1.6000    0.0000 H   0  0  0  0  0  0  0  0  0  0  0  0
    2.7713   -0.0000    0.0000 H   0  0  0  0  0  0  0  0  0  0  0  0
    1.3857    2.4001    0.0000 H   0  0  0  0  0  0  0  0  0  0  0  0
    0.8001   -1.3857    0.0000 C   0  0  0  0  0  0  0  0  0  0  0  0
    1.6001   -2.7713    0.0000 H   0  0  0  0  0  0  0  0  0  0  0  0
    0.0001   -2.7713    0.0000 H   0  0  0  0  0  0  0  0  0  0  0  0
    2.4001   -1.3857    0.0000 H   0  0  0  0  0  0  0  0  0  0  0  0
   -2.7713    1.6000    0.0000 C   0  0  0  0  0  0  0  0  0  0  0  0
   -1.3857    2.4001    0.0000 H   0  0  0  0  0  0  0  0  0  0  0  0
   -4.1569    2.4001    0.0000 C   0  0  0  0  0  0  0  0  0  0  0  0
   -4.1569    4.0000    0.0000 H   0  0  0  0  0  0  0  0  0  0  0  0
   -5.5424    1.6000    0.0000 C   0  0  0  0  0  0  0  0  0  0  0  0
   -6.9283    2.4001    0.0000 H   0  0  0  0  0  0  0  0  0  0  0  0
   -8.3138    1.6000    0.0000 O   0  0  0  0  0  0  0  0  0  0  0  0
  -11.0850   -0.0000    0.0000 C   0  0  0  0  0  0  0  0  0  0  0  0
  -11.0850    1.6000    0.0000 C   0  0  0  0  0  0  0  0  0  0  0  0
  -11.0850    3.2000    0.0000 F   0  0  0  0  0  0  0  0  0  0  0  0
  -12.4708    2.4001    0.0000 F   0  0  0  0  0  0  0  0  0  0  0  0
   -9.6994    2.4001    0.0000 F   0  0  0  0  0  0  0  0  0  0  0  0
  -12.4708   -0.8000    0.0000 C   0  0  0  0  0  0  0  0  0  0  0  0
  -13.8564   -0.0000    0.0000 H   0  0  0  0  0  0  0  0  0  0  0  0
  -12.4708   -2.4000    0.0000 C   0  0  0  0  0  0  0  0  0  0  0  0
  -13.8564   -3.2001    0.0000 H   0  0  0  0  0  0  0  0  0  0  0  0
  -11.0850   -3.2001    0.0000 C   0  0  0  0  0  0  0  0  0  0  0  0
  -11.0850   -4.8000    0.0000 H   0  0  0  0  0  0  0  0  0  0  0  0
   -9.6994   -2.4000    0.0000 C   0  0  0  0  0  0  0  0  0  0  0  0
   -8.3138   -3.2001    0.0000 H   0  0  0  0  0  0  0  0  0  0  0  0
  1  2  1  0  0  0  0
  2  3  1  0  0  0  0
  3  4  1  0  0  0  0
  3  5  1  0  0  0  0
  5  6  1  0  0  0  0
  6  7  1  0  0  0  0
  6  8  2  0  0  0  0
  8  9  1  0  0  0  0
  9 10  1  0  0  0  0
 10 11  1  0  0  0  0
 10 12  1  0  0  0  0
 12 13  1  0  0  0  0
 12 14  1  0  0  0  0
 12 15  1  0  0  0  0
 10 16  1  0  0  0  0
 16 17  1  0  0  0  0
 16 18  1  0  0  0  0
 16 19  1  0  0  0  0
  8 20  1  0  0  0  0
 20 21  1  0  0  0  0
 20 22  2  0  0  0  0
 22 23  1  0  0  0  0
 22 24  1  0  0  0  0
 24  5  2  0  0  0  0
 24 25  1  0  0  0  0
  2 26  2  0  0  0  0
  1 27  1  0  0  0  0
 27 28  1  0  0  0  0
 28 29  1  0  0  0  0
 28 30  1  0  0  0  0
 28 31  1  0  0  0  0
 27 32  2  0  0  0  0
 32 33  1  0  0  0  0
 32 34  1  0  0  0  0
 34 35  1  0  0  0  0
 34 36  2  0  0  0  0
 36 37  1  0  0  0  0
 36 38  1  0  0  0  0
 38  1  2  0  0  0  0
 38 39  1  0  0  0  0
M  END
> <ChemID>
102833

> <source_casrn>
66332-96-5

> <CAS>
66332-96-5

> <SMILES>
CC(C)Oc1cc(ccc1)NC(=O)c1ccccc1C(F)(F)F

> <NAME>
Flutolanil

> <preferred_name>
Flutolanil

> <iupac>
N-[3-(propan-2-yloxy)phenyl]-2-(trifluoromethyl)benzamide

> <MPID>
27236

> <dsstox_substance_id>
DTXSID8024109

> <Canonical_QSARr>
CC(C)Oc1cc(ccc1)NC(=O)c1ccccc1C(F)(F)F

> <InChI_Code_QSARr>
InChI=1S/C17H16F3NO2/c1-11(2)23-13-7-5-6-12(10-13)21-16(22)14-8-3-4-9-15(14)17(18,19)20/h3-11H,1-2H3,(H,21,22)

> <InChI Key_QSARr>
PTCGDEVVHUXTMP-UHFFFAOYSA-N

> <Salt_Solvent>
?

> <LogVP>
-7.3116

$$$$
102837
  -INDIGO-08031723152D

 51 52  0  0  0  0  0  0  0  0999 V2000
    7.7281    3.7856    0.0000 C   0  0  0  0  0  0  0  0  0  0  0  0
    8.5282    5.1713    0.0000 H   0  0  0  0  0  0  0  0  0  0  0  0
    9.3281    3.7856    0.0000 H   0  0  0  0  0  0  0  0  0  0  0  0
    7.1811    5.2891    0.0000 H   0  0  0  0  0  0  0  0  0  0  0  0
    6.9283    2.4000    0.0000 C   0  0  0  0  0  0  0  0  0  0  0  0
    6.1282    1.0144    0.0000 H   0  0  0  0  0  0  0  0  0  0  0  0
    5.5425    3.2001    0.0000 C   0  0  0  0  0  0  0  0  0  0  0  0
    6.1549    4.6781    0.0000 H   0  0  0  0  0  0  0  0  0  0  0  0
    4.9303    4.6781    0.0000 H   0  0  0  0  0  0  0  0  0  0  0  0
    4.1569    2.4000    0.0000 C   0  0  0  0  0  0  0  0  0  0  0  0
    4.1569    0.8000    0.0000 C   0  0  0  0  0  0  0  0  0  0  0  0
    5.5425   -0.0000    0.0000 H   0  0  0  0  0  0  0  0  0  0  0  0
    2.7714   -0.0000    0.0000 C   0  0  0  0  0  0  0  0  0  0  0  0
    2.7714   -1.6000    0.0000 H   0  0  0  0  0  0  0  0  0  0  0  0
    1.3856    0.8000    0.0000 C   0  0  0  0  0  0  0  0  0  0  0  0
    0.0000   -0.0000    0.0000 C   0  0  0  0  0  0  0  0  0  0  0  0
   -1.3855   -0.8000    0.0000 C   0  0  0  0  0  0  0  0  0  0  0  0
   -2.7713   -1.6000    0.0000 H   0  0  0  0  0  0  0  0  0  0  0  0
   -1.6634   -2.3756    0.0000 H   0  0  0  0  0  0  0  0  0  0  0  0
   -2.8891   -0.2528    0.0000 H   0  0  0  0  0  0  0  0  0  0  0  0
   -0.8001    1.3856    0.0000 C   0  0  0  0  0  0  0  0  0  0  0  0
   -1.3471    2.8891    0.0000 H   0  0  0  0  0  0  0  0  0  0  0  0
   -2.3757    1.6635    0.0000 H   0  0  0  0  0  0  0  0  0  0  0  0
   -1.8284    0.1600    0.0000 H   0  0  0  0  0  0  0  0  0  0  0  0
    0.8001   -1.3857    0.0000 C   0  0  0  0  0  0  0  0  0  0  0  0
    1.8284   -2.6113    0.0000 H   0  0  0  0  0  0  0  0  0  0  0  0
    0.2528   -2.8892    0.0000 H   0  0  0  0  0  0  0  0  0  0  0  0
   -0.7758   -1.6634    0.0000 H   0  0  0  0  0  0  0  0  0  0  0  0
    1.3856    2.4000    0.0000 C   0  0  0  0  0  0  0  0  0  0  0  0
    0.0000    3.2001    0.0000 H   0  0  0  0  0  0  0  0  0  0  0  0
    2.7714    3.2001    0.0000 C   0  0  0  0  0  0  0  0  0  0  0  0
    2.7714    4.8001    0.0000 H   0  0  0  0  0  0  0  0  0  0  0  0
    8.3138    1.5999    0.0000 C   0  0  0  0  0  0  0  0  0  0  0  0
    8.5227    3.1863    0.0000 H   0  0  0  0  0  0  0  0  0  0  0  0
    9.5833    2.5740    0.0000 H   0  0  0  0  0  0  0  0  0  0  0  0
    9.1139    0.2143    0.0000 N   0  0  0  0  0  0  0  0  0  0  0  0
    8.3138   -1.1713    0.0000 C   0  0  0  0  0  0  0  0  0  0  0  0
    7.0881   -0.1428    0.0000 H   0  0  0  0  0  0  0  0  0  0  0  0
    7.0881   -2.1998    0.0000 H   0  0  0  0  0  0  0  0  0  0  0  0
    9.1139   -2.5569    0.0000 C   0  0  0  0  0  0  0  0  0  0  0  0
    7.6103   -3.1041    0.0000 H   0  0  0  0  0  0  0  0  0  0  0  0
    9.3918   -4.1326    0.0000 H   0  0  0  0  0  0  0  0  0  0  0  0
   10.7139   -2.5569    0.0000 C   0  0  0  0  0  0  0  0  0  0  0  0
   10.4361   -4.1326    0.0000 H   0  0  0  0  0  0  0  0  0  0  0  0
   12.2172   -3.1041    0.0000 H   0  0  0  0  0  0  0  0  0  0  0  0
   11.5137   -1.1713    0.0000 C   0  0  0  0  0  0  0  0  0  0  0  0
   12.7395   -2.1998    0.0000 H   0  0  0  0  0  0  0  0  0  0  0  0
   12.7395   -0.1428    0.0000 H   0  0  0  0  0  0  0  0  0  0  0  0
   10.7139    0.2143    0.0000 C   0  0  0  0  0  0  0  0  0  0  0  0
   12.2172    0.7616    0.0000 H   0  0  0  0  0  0  0  0  0  0  0  0
   10.4361    1.7900    0.0000 H   0  0  0  0  0  0  0  0  0  0  0  0
  1  2  1  0  0  0  0
  1  3  1  0  0  0  0
  1  4  1  0  0  0  0
  1  5  1  0  0  0  0
  5  6  1  0  0  0  0
  5  7  1  0  0  0  0
  7  8  1  0  0  0  0
  7  9  1  0  0  0  0
  7 10  1  0  0  0  0
 10 11  1  0  0  0  0
 11 12  1  0  0  0  0
 11 13  2  0  0  0  0
 13 14  1  0  0  0  0
 13 15  1  0  0  0  0
 15 16  1  0  0  0  0
 16 17  1  0  0  0  0
 17 18  1  0  0  0  0
 17 19  1  0  0  0  0
 17 20  1  0  0  0  0
 16 21  1  0  0  0  0
 21 22  1  0  0  0  0
 21 23  1  0  0  0  0
 21 24  1  0  0  0  0
 16 25  1  0  0  0  0
 25 26  1  0  0  0  0
 25 27  1  0  0  0  0
 25 28  1  0  0  0  0
 15 29  2  0  0  0  0
 29 30  1  0  0  0  0
 29 31  1  0  0  0  0
 31 10  2  0  0  0  0
 31 32  1  0  0  0  0
  5 33  1  0  0  0  0
 33 34  1  0  0  0  0
 33 35  1  0  0  0  0
 33 36  1  0  0  0  0
 36 37  1  0  0  0  0
 37 38  1  0  0  0  0
 37 39  1  0  0  0  0
 37 40  1  0  0  0  0
 40 41  1  0  0  0  0
 40 42  1  0  0  0  0
 40 43  1  0  0  0  0
 43 44  1  0  0  0  0
 43 45  1  0  0  0  0
 43 46  1  0  0  0  0
 46 47  1  0  0  0  0
 46 48  1  0  0  0  0
 46 49  1  0  0  0  0
 49 36  1  0  0  0  0
 49 50  1  0  0  0  0
 49 51  1  0  0  0  0
M  END
> <ChemID>
102837

> <source_casrn>
67306-00-7

> <CAS>
67306-00-7

> <SMILES>
CC(Cc1ccc(cc1)C(C)(C)C)CN1CCCCC1

> <NAME>
Fenpropidin

> <preferred_name>
Fenpropidin

> <iupac>
1-[3-(4-tert-butylphenyl)-2-methylpropyl]piperidine

> <MPID>
27240

> <dsstox_substance_id>
DTXSID9058157

> <Canonical_QSARr>
CC(Cc1ccc(cc1)C(C)(C)C)CN1CCCCC1

> <InChI_Code_QSARr>
InChI=1S/C19H31N/c1-16(15-20-12-6-5-7-13-20)14-17-8-10-18(11-9-17)19(2,3)4/h8-11,16H,5-7,12-15H2,1-4H3

> <InChI Key_QSARr>
MGNFYQILYYYUBS-UHFFFAOYSA-N

> <Salt_Solvent>
?

> <LogVP>
-3.8928

$$$$
102842
  -INDIGO-08031723152D

 21 23  0  0  0  0  0  0  0  0999 V2000
    3.2000    0.0000    0.0000 C   0  0  0  0  0  0  0  0  0  0  0  0
    4.8000    0.0000    0.0000 H   0  0  0  0  0  0  0  0  0  0  0  0
    2.4000    1.3856    0.0000 C   0  0  0  0  0  0  0  0  0  0  0  0
    3.2000    2.7713    0.0000 H   0  0  0  0  0  0  0  0  0  0  0  0
    0.8000    1.3856    0.0000 C   0  0  0  0  0  0  0  0  0  0  0  0
    0.0000    0.0000    0.0000 C   0  0  0  0  0  0  0  0  0  0  0  0
   -1.5651    0.3327    0.0000 C   0  0  0  0  0  0  0  0  0  0  0  0
   -1.7322    1.9239    0.0000 C   0  0  0  0  0  0  0  0  0  0  0  0
   -0.2707    2.5747    0.0000 O   0  0  0  0  0  0  0  0  0  0  0  0
   -3.1939    2.5747    0.0000 C   0  0  0  0  0  0  0  0  0  0  0  0
   -3.3612    4.1659    0.0000 Cl  0  0  0  0  0  0  0  0  0  0  0  0
   -4.4883    1.6342    0.0000 C   0  0  0  0  0  0  0  0  0  0  0  0
   -5.9501    2.2850    0.0000 Cl  0  0  0  0  0  0  0  0  0  0  0  0
   -4.3212    0.0430    0.0000 C   0  0  0  0  0  0  0  0  0  0  0  0
   -5.6156   -0.8974    0.0000 Cl  0  0  0  0  0  0  0  0  0  0  0  0
   -2.8595   -0.6078    0.0000 C   0  0  0  0  0  0  0  0  0  0  0  0
   -2.6921   -2.1990    0.0000 Cl  0  0  0  0  0  0  0  0  0  0  0  0
    0.8000   -1.3856    0.0000 C   0  0  0  0  0  0  0  0  0  0  0  0
    0.0000   -2.7713    0.0000 H   0  0  0  0  0  0  0  0  0  0  0  0
    2.4000   -1.3856    0.0000 C   0  0  0  0  0  0  0  0  0  0  0  0
    3.2000   -2.7713    0.0000 Cl  0  0  0  0  0  0  0  0  0  0  0  0
  1  2  1  0  0  0  0
  1  3  1  0  0  0  0
  3  4  1  0  0  0  0
  3  5  2  0  0  0  0
  5  6  1  0  0  0  0
  6  7  1  0  0  0  0
  7  8  1  0  0  0  0
  8  9  1  0  0  0  0
  9  5  1  0  0  0  0
  8 10  2  0  0  0  0
 10 11  1  0  0  0  0
 10 12  1  0  0  0  0
 12 13  1  0  0  0  0
 12 14  2  0  0  0  0
 14 15  1  0  0  0  0
 14 16  1  0  0  0  0
 16  7  2  0  0  0  0
 16 17  1  0  0  0  0
  6 18  2  0  0  0  0
 18 19  1  0  0  0  0
 18 20  1  0  0  0  0
 20  1  2  0  0  0  0
 20 21  1  0  0  0  0
M  END
> <ChemID>
102842

> <source_casrn>
67517-48-0

> <CAS>
67517-48-0

> <SMILES>
Clc1cc2c3c(oc2cc1)c(Cl)c(Cl)c(Cl)c3Cl

> <NAME>
DIBENZOFURAN, 1,2,3,4,8-PENTACHLORO-

> <preferred_name>
Dibenzofuran, 1,2,3,4,8-pentachloro-

> <iupac>
1,2,3,4,8-PENTACHLORODIBENZOFURAN

> <MPID>
27245

> <dsstox_substance_id>
DTXSID7075262

> <Canonical_QSARr>
Clc1cc2c3c(oc2cc1)c(Cl)c(Cl)c(Cl)c3Cl

> <InChI_Code_QSARr>
InChI=1S/C12H3Cl5O/c13-4-1-2-6-5(3-4)7-8(14)9(15)10(16)11(17)12(7)18-6/h1-3H

> <InChI Key_QSARr>
ZCTNDJSCLPJCRA-UHFFFAOYSA-N

> <Salt_Solvent>
?

> <LogVP>
-8.4437

$$$$
102847
  -INDIGO-08031723152D

 18 19  0  0  0  0  0  0  0  0999 V2000
    0.0001   -0.0000    0.0000 C   0  0  0  0  0  0  0  0  0  0  0  0
    1.3856    0.8000    0.0000 C   0  0  0  0  0  0  0  0  0  0  0  0
    1.3856    2.4000    0.0000 H   0  0  0  0  0  0  0  0  0  0  0  0
    2.7713   -0.0000    0.0000 C   0  0  0  0  0  0  0  0  0  0  0  0
    4.1569    0.8000    0.0000 H   0  0  0  0  0  0  0  0  0  0  0  0
    2.7713   -1.6000    0.0000 C   0  0  0  0  0  0  0  0  0  0  0  0
    4.1569   -2.4000    0.0000 Cl  0  0  0  0  0  0  0  0  0  0  0  0
    1.3856   -2.4000    0.0000 C   0  0  0  0  0  0  0  0  0  0  0  0
    1.3856   -4.0000    0.0000 H   0  0  0  0  0  0  0  0  0  0  0  0
    0.0001   -1.6000    0.0000 C   0  0  0  0  0  0  0  0  0  0  0  0
   -1.3856   -2.4000    0.0000 C   0  0  0  0  0  0  0  0  0  0  0  0
   -1.3856   -4.0000    0.0000 Cl  0  0  0  0  0  0  0  0  0  0  0  0
   -2.7712   -1.6000    0.0000 C   0  0  0  0  0  0  0  0  0  0  0  0
   -4.1569   -2.4000    0.0000 Cl  0  0  0  0  0  0  0  0  0  0  0  0
   -2.7712   -0.0000    0.0000 C   0  0  0  0  0  0  0  0  0  0  0  0
   -4.1569    0.8000    0.0000 Cl  0  0  0  0  0  0  0  0  0  0  0  0
   -1.3856    0.8000    0.0000 C   0  0  0  0  0  0  0  0  0  0  0  0
   -1.3856    2.4000    0.0000 Cl  0  0  0  0  0  0  0  0  0  0  0  0
  1  2  1  0  0  0  0
  2  3  1  0  0  0  0
  2  4  2  0  0  0  0
  4  5  1  0  0  0  0
  4  6  1  0  0  0  0
  6  7  1  0  0  0  0
  6  8  2  0  0  0  0
  8  9  1  0  0  0  0
  8 10  1  0  0  0  0
 10  1  1  0  0  0  0
 10 11  2  0  0  0  0
 11 12  1  0  0  0  0
 11 13  1  0  0  0  0
 13 14  1  0  0  0  0
 13 15  2  0  0  0  0
 15 16  1  0  0  0  0
 15 17  1  0  0  0  0
 17  1  2  0  0  0  0
 17 18  1  0  0  0  0
M  END
> <ChemID>
102847

> <source_casrn>
67922-26-3

> <CAS>
67922-26-3

> <SMILES>
Clc1cc2c(cc1)c(Cl)c(Cl)c(Cl)c2Cl

> <NAME>
1,2,3,4,6-Pentachloronaphthalene

> <preferred_name>


> <iupac>


> <MPID>
27250

> <dsstox_substance_id>
DTXSID20871456

> <Canonical_QSARr>
Clc1cc2c(cc1)c(Cl)c(Cl)c(Cl)c2Cl

> <InChI_Code_QSARr>
InChI=1S/C10H3Cl5/c11-4-1-2-5-6(3-4)8(13)10(15)9(14)7(5)12/h1-3H

> <InChI Key_QSARr>
BAOLNVSMVTYGDA-UHFFFAOYSA-N

> <Salt_Solvent>
?

> <LogVP>
-5.9586

$$$$
102852
  -INDIGO-08031723152D

 47 49  0  0  0  0  0  0  0  0999 V2000
   -0.0000    0.0000    0.0000 C   0  0  0  0  0  0  0  0  0  0  0  0
   -0.8000   -1.3857    0.0000 C   0  0  0  0  0  0  0  0  0  0  0  0
    0.4257   -2.4141    0.0000 H   0  0  0  0  0  0  0  0  0  0  0  0
   -2.1856   -2.1856    0.0000 C   0  0  0  0  0  0  0  0  0  0  0  0
   -3.1445   -2.1354    0.0000 H   0  0  0  0  0  0  0  0  0  0  0  0
   -2.1856   -3.7857    0.0000 C   0  0  0  0  0  0  0  0  0  0  0  0
   -3.5711   -4.5856    0.0000 Cl  0  0  0  0  0  0  0  0  0  0  0  0
   -0.8000   -4.5856    0.0000 Cl  0  0  0  0  0  0  0  0  0  0  0  0
   -1.6000    0.0000    0.0000 C   0  0  0  0  0  0  0  0  0  0  0  0
   -1.8780    1.5756    0.0000 H   0  0  0  0  0  0  0  0  0  0  0  0
   -3.1034   -0.5472    0.0000 C   0  0  0  0  0  0  0  0  0  0  0  0
   -4.3291    0.4812    0.0000 O   0  0  0  0  0  0  0  0  0  0  0  0
   -5.8328   -0.0660    0.0000 C   0  0  0  0  0  0  0  0  0  0  0  0
   -6.1104   -1.6417    0.0000 H   0  0  0  0  0  0  0  0  0  0  0  0
   -7.3362   -0.6133    0.0000 C   0  0  0  0  0  0  0  0  0  0  0  0
   -8.5619    0.4153    0.0000 C   0  0  0  0  0  0  0  0  0  0  0  0
   -8.2840    1.9909    0.0000 H   0  0  0  0  0  0  0  0  0  0  0  0
  -10.0653   -0.1320    0.0000 C   0  0  0  0  0  0  0  0  0  0  0  0
  -11.2910    0.8965    0.0000 O   0  0  0  0  0  0  0  0  0  0  0  0
  -12.8910    0.8965    0.0000 C   0  0  0  0  0  0  0  0  0  0  0  0
  -13.6910   -0.4892    0.0000 C   0  0  0  0  0  0  0  0  0  0  0  0
  -12.8910   -1.8748    0.0000 H   0  0  0  0  0  0  0  0  0  0  0  0
  -15.2910   -0.4892    0.0000 C   0  0  0  0  0  0  0  0  0  0  0  0
  -16.0910   -1.8748    0.0000 H   0  0  0  0  0  0  0  0  0  0  0  0
  -16.0910    0.8965    0.0000 C   0  0  0  0  0  0  0  0  0  0  0  0
  -17.6911    0.8965    0.0000 H   0  0  0  0  0  0  0  0  0  0  0  0
  -15.2910    2.2820    0.0000 C   0  0  0  0  0  0  0  0  0  0  0  0
  -16.0910    3.6677    0.0000 H   0  0  0  0  0  0  0  0  0  0  0  0
  -13.6910    2.2820    0.0000 C   0  0  0  0  0  0  0  0  0  0  0  0
  -12.8910    3.6677    0.0000 H   0  0  0  0  0  0  0  0  0  0  0  0
  -10.3432   -1.7077    0.0000 C   0  0  0  0  0  0  0  0  0  0  0  0
  -11.8466   -2.2549    0.0000 F   0  0  0  0  0  0  0  0  0  0  0  0
   -9.1175   -2.7361    0.0000 C   0  0  0  0  0  0  0  0  0  0  0  0
   -9.3954   -4.3119    0.0000 H   0  0  0  0  0  0  0  0  0  0  0  0
   -7.6141   -2.1889    0.0000 C   0  0  0  0  0  0  0  0  0  0  0  0
   -6.3884   -3.2174    0.0000 H   0  0  0  0  0  0  0  0  0  0  0  0
   -6.6328    1.3196    0.0000 C   0  0  0  0  0  0  0  0  0  0  0  0
   -7.4328    2.7053    0.0000 N   0  0  0  0  0  0  0  0  0  0  0  0
   -3.5711   -1.3857    0.0000 O   0  0  0  0  0  0  0  0  0  0  0  0
    0.2779    1.5756    0.0000 C   0  0  0  0  0  0  0  0  0  0  0  0
    0.5555    3.1514    0.0000 H   0  0  0  0  0  0  0  0  0  0  0  0
    1.7813    2.1230    0.0000 H   0  0  0  0  0  0  0  0  0  0  0  0
   -0.9478    2.6042    0.0000 H   0  0  0  0  0  0  0  0  0  0  0  0
    1.5037   -0.5472    0.0000 C   0  0  0  0  0  0  0  0  0  0  0  0
    3.0070   -1.0945    0.0000 H   0  0  0  0  0  0  0  0  0  0  0  0
    2.7291    0.4812    0.0000 H   0  0  0  0  0  0  0  0  0  0  0  0
    1.7813   -2.1229    0.0000 H   0  0  0  0  0  0  0  0  0  0  0  0
  1  2  1  0  0  0  0
  2  3  1  0  0  0  0
  2  4  1  0  0  0  0
  4  5  1  0  0  0  0
  4  6  2  0  0  0  0
  6  7  1  0  0  0  0
  6  8  1  0  0  0  0
  2  9  1  0  0  0  0
  9  1  1  0  0  0  0
  9 10  1  0  0  0  0
  9 11  1  0  0  0  0
 11 12  1  0  0  0  0
 12 13  1  0  0  0  0
 13 14  1  0  0  0  0
 13 15  1  0  0  0  0
 15 16  1  0  0  0  0
 16 17  1  0  0  0  0
 16 18  2  0  0  0  0
 18 19  1  0  0  0  0
 19 20  1  0  0  0  0
 20 21  1  0  0  0  0
 21 22  1  0  0  0  0
 21 23  2  0  0  0  0
 23 24  1  0  0  0  0
 23 25  1  0  0  0  0
 25 26  1  0  0  0  0
 25 27  2  0  0  0  0
 27 28  1  0  0  0  0
 27 29  1  0  0  0  0
 29 20  2  0  0  0  0
 29 30  1  0  0  0  0
 18 31  1  0  0  0  0
 31 32  1  0  0  0  0
 31 33  2  0  0  0  0
 33 34  1  0  0  0  0
 33 35  1  0  0  0  0
 35 15  2  0  0  0  0
 35 36  1  0  0  0  0
 13 37  1  0  0  0  0
 37 38  3  0  0  0  0
 11 39  2  0  0  0  0
  1 40  1  0  0  0  0
 40 41  1  0  0  0  0
 40 42  1  0  0  0  0
 40 43  1  0  0  0  0
  1 44  1  0  0  0  0
 44 45  1  0  0  0  0
 44 46  1  0  0  0  0
 44 47  1  0  0  0  0
M  END
> <ChemID>
102852

> <source_casrn>
68359-37-5

> <CAS>
68359-37-5

> <SMILES>
CC1(C)C(C1C=C(Cl)Cl)C(=O)OC(C#N)c1ccc(F)c(c1)Oc1ccccc1

> <NAME>
CYFLUTHRIN

> <preferred_name>
Cyfluthrin

> <iupac>
cyano(4-fluoro-3-phenoxyphenyl)methyl 3-(2,2-dichloroethenyl)-2,2-dimethylcyclopropanecarboxylate

> <MPID>
27254

> <dsstox_substance_id>
DTXSID5035957

> <Canonical_QSARr>
CC1(C)C(C1C=C(Cl)Cl)C(=O)OC(C#N)c1ccc(F)c(c1)Oc1ccccc1

> <InChI_Code_QSARr>
InChI=1S/C22H18Cl2FNO3/c1-22(2)15(11-19(23)24)20(22)21(27)29-18(12-26)13-8-9-16(25)17(10-13)28-14-6-4-3-5-7-14/h3-11,15,18,20H,1-2H3

> <InChI Key_QSARr>
QQODLKZGRKWIFG-UHFFFAOYSA-N

> <Salt_Solvent>
?

> <LogVP>
-9.8239

$$$$
102858
  -INDIGO-08031723152D

 20 20  0  0  0  0  0  0  0  0999 V2000
    2.7713    1.6000    0.0000 N   0  0  0  0  0  0  0  0  0  0  0  0
    2.7713    0.0000    0.0000 C   0  0  0  0  0  0  0  0  0  0  0  0
    4.1569   -0.8000    0.0000 O   0  0  0  0  0  0  0  0  0  0  0  0
    5.5426    0.0000    0.0000 C   0  0  0  0  0  0  0  0  0  0  0  0
    6.1549    1.4782    0.0000 H   0  0  0  0  0  0  0  0  0  0  0  0
    4.9302    1.4782    0.0000 H   0  0  0  0  0  0  0  0  0  0  0  0
    6.9283   -0.8000    0.0000 C   0  0  0  0  0  0  0  0  0  0  0  0
    6.9283   -2.4000    0.0000 O   0  0  0  0  0  0  0  0  0  0  0  0
    8.3138    0.0000    0.0000 O   0  0  0  0  0  0  0  0  0  0  0  0
    9.6995   -0.8000    0.0000 H   0  0  0  0  0  0  0  0  0  0  0  0
    1.3856   -0.8000    0.0000 C   0  0  0  0  0  0  0  0  0  0  0  0
    1.3856   -2.4000    0.0000 Cl  0  0  0  0  0  0  0  0  0  0  0  0
   -0.0001    0.0000    0.0000 C   0  0  0  0  0  0  0  0  0  0  0  0
   -1.3856   -0.8000    0.0000 N   0  0  0  0  0  0  0  0  0  0  0  0
   -2.7713    0.0000    0.0000 H   0  0  0  0  0  0  0  0  0  0  0  0
   -1.3856   -2.4000    0.0000 H   0  0  0  0  0  0  0  0  0  0  0  0
   -0.0001    1.6000    0.0000 C   0  0  0  0  0  0  0  0  0  0  0  0
   -1.3856    2.4000    0.0000 Cl  0  0  0  0  0  0  0  0  0  0  0  0
    1.3856    2.4000    0.0000 C   0  0  0  0  0  0  0  0  0  0  0  0
    1.3856    4.0000    0.0000 F   0  0  0  0  0  0  0  0  0  0  0  0
  1  2  1  0  0  0  0
  2  3  1  0  0  0  0
  3  4  1  0  0  0  0
  4  5  1  0  0  0  0
  4  6  1  0  0  0  0
  4  7  1  0  0  0  0
  7  8  2  0  0  0  0
  7  9  1  0  0  0  0
  9 10  1  0  0  0  0
  2 11  2  0  0  0  0
 11 12  1  0  0  0  0
 11 13  1  0  0  0  0
 13 14  1  0  0  0  0
 14 15  1  0  0  0  0
 14 16  1  0  0  0  0
 13 17  2  0  0  0  0
 17 18  1  0  0  0  0
 17 19  1  0  0  0  0
 19  1  2  0  0  0  0
 19 20  1  0  0  0  0
M  END
> <ChemID>
102858

> <source_casrn>
69377-81-7

> <CAS>
69377-81-7

> <SMILES>
Nc1c(Cl)c(F)[n]c(OCC(O)=O)c1Cl

> <NAME>
Fluroxypyr

> <preferred_name>
Fluroxypyr

> <iupac>
[(4-amino-3,5-dichloro-6-fluoropyridin-2-yl)oxy]acetic acid

> <MPID>
27258

> <dsstox_substance_id>
DTXSID2034627

> <Canonical_QSARr>
Nc1c(Cl)c(F)[n]c(OCC(O)=O)c1Cl

> <InChI_Code_QSARr>
InChI=1S/C7H5Cl2FN2O3/c8-3-5(11)4(9)7(12-6(3)10)15-1-2(13)14/h1H2,(H2,11,12)(H,13,14)

> <InChI Key_QSARr>
MEFQWPUMEMWTJP-UHFFFAOYSA-N

> <Salt_Solvent>
?

> <LogVP>
-10.5467

$$$$
102862
  -INDIGO-08031723152D

 56 58  0  0  0  0  0  0  0  0999 V2000
   -1.5036   -0.5472    0.0000 C   0  0  0  0  0  0  0  0  0  0  0  0
   -0.0000    0.0000    0.0000 C   0  0  0  0  0  0  0  0  0  0  0  0
    1.5035    0.5473    0.0000 H   0  0  0  0  0  0  0  0  0  0  0  0
   -0.5471    1.5034    0.0000 C   0  0  0  0  0  0  0  0  0  0  0  0
   -1.9330    0.7035    0.0000 H   0  0  0  0  0  0  0  0  0  0  0  0
   -1.3473    2.8892    0.0000 C   0  0  0  0  0  0  0  0  0  0  0  0
   -2.1471    4.2748    0.0000 H   0  0  0  0  0  0  0  0  0  0  0  0
   -0.5471    4.2748    0.0000 H   0  0  0  0  0  0  0  0  0  0  0  0
   -2.9473    2.8892    0.0000 H   0  0  0  0  0  0  0  0  0  0  0  0
    0.8385    2.3036    0.0000 C   0  0  0  0  0  0  0  0  0  0  0  0
    2.2242    3.1036    0.0000 H   0  0  0  0  0  0  0  0  0  0  0  0
    0.8385    3.9036    0.0000 H   0  0  0  0  0  0  0  0  0  0  0  0
    2.2242    1.5034    0.0000 H   0  0  0  0  0  0  0  0  0  0  0  0
    0.5473   -1.5035    0.0000 C   0  0  0  0  0  0  0  0  0  0  0  0
   -0.2528   -2.8891    0.0000 C   0  0  0  0  0  0  0  0  0  0  0  0
   -1.8284   -3.1669    0.0000 H   0  0  0  0  0  0  0  0  0  0  0  0
    0.5473   -4.2747    0.0000 C   0  0  0  0  0  0  0  0  0  0  0  0
   -0.2528   -5.6605    0.0000 H   0  0  0  0  0  0  0  0  0  0  0  0
    2.1474   -4.2747    0.0000 C   0  0  0  0  0  0  0  0  0  0  0  0
    2.9472   -5.6605    0.0000 O   0  0  0  0  0  0  0  0  0  0  0  0
    4.5472   -5.6605    0.0000 C   0  0  0  0  0  0  0  0  0  0  0  0
    5.3474   -7.0461    0.0000 H   0  0  0  0  0  0  0  0  0  0  0  0
    6.1472   -5.6605    0.0000 F   0  0  0  0  0  0  0  0  0  0  0  0
    3.7474   -7.0461    0.0000 F   0  0  0  0  0  0  0  0  0  0  0  0
    2.9472   -2.8891    0.0000 C   0  0  0  0  0  0  0  0  0  0  0  0
    4.5472   -2.8891    0.0000 H   0  0  0  0  0  0  0  0  0  0  0  0
    2.1474   -1.5035    0.0000 C   0  0  0  0  0  0  0  0  0  0  0  0
    2.9472   -0.1179    0.0000 H   0  0  0  0  0  0  0  0  0  0  0  0
   -2.8892    0.2528    0.0000 O   0  0  0  0  0  0  0  0  0  0  0  0
   -4.2748   -0.5472    0.0000 C   0  0  0  0  0  0  0  0  0  0  0  0
   -4.2748   -2.1472    0.0000 H   0  0  0  0  0  0  0  0  0  0  0  0
   -5.3033    0.6784    0.0000 C   0  0  0  0  0  0  0  0  0  0  0  0
   -6.3318    1.9040    0.0000 N   0  0  0  0  0  0  0  0  0  0  0  0
   -5.6604   -1.3472    0.0000 C   0  0  0  0  0  0  0  0  0  0  0  0
   -5.6604   -2.9472    0.0000 C   0  0  0  0  0  0  0  0  0  0  0  0
   -4.2748   -3.7472    0.0000 H   0  0  0  0  0  0  0  0  0  0  0  0
   -7.0460   -3.7472    0.0000 C   0  0  0  0  0  0  0  0  0  0  0  0
   -7.0460   -5.3473    0.0000 H   0  0  0  0  0  0  0  0  0  0  0  0
   -8.4316   -2.9472    0.0000 C   0  0  0  0  0  0  0  0  0  0  0  0
   -9.8172   -3.7472    0.0000 H   0  0  0  0  0  0  0  0  0  0  0  0
   -8.4316   -1.3472    0.0000 C   0  0  0  0  0  0  0  0  0  0  0  0
   -9.8172   -0.5472    0.0000 O   0  0  0  0  0  0  0  0  0  0  0  0
  -11.3931   -0.8250    0.0000 C   0  0  0  0  0  0  0  0  0  0  0  0
  -11.9402   -2.3286    0.0000 C   0  0  0  0  0  0  0  0  0  0  0  0
  -10.9117   -3.5542    0.0000 H   0  0  0  0  0  0  0  0  0  0  0  0
  -13.5161   -2.6063    0.0000 C   0  0  0  0  0  0  0  0  0  0  0  0
  -14.0631   -4.1099    0.0000 H   0  0  0  0  0  0  0  0  0  0  0  0
  -14.5446   -1.3807    0.0000 C   0  0  0  0  0  0  0  0  0  0  0  0
  -16.1201   -1.6587    0.0000 H   0  0  0  0  0  0  0  0  0  0  0  0
  -13.9972    0.1227    0.0000 C   0  0  0  0  0  0  0  0  0  0  0  0
  -15.0257    1.3485    0.0000 H   0  0  0  0  0  0  0  0  0  0  0  0
  -12.4216    0.4006    0.0000 C   0  0  0  0  0  0  0  0  0  0  0  0
  -11.8743    1.9040    0.0000 H   0  0  0  0  0  0  0  0  0  0  0  0
   -7.0460   -0.5472    0.0000 C   0  0  0  0  0  0  0  0  0  0  0  0
   -7.0460    1.0527    0.0000 H   0  0  0  0  0  0  0  0  0  0  0  0
   -1.7815   -2.1230    0.0000 O   0  0  0  0  0  0  0  0  0  0  0  0
  1  2  1  0  0  0  0
  2  3  1  0  0  0  0
  2  4  1  0  0  0  0
  4  5  1  0  0  0  0
  4  6  1  0  0  0  0
  6  7  1  0  0  0  0
  6  8  1  0  0  0  0
  6  9  1  0  0  0  0
  4 10  1  0  0  0  0
 10 11  1  0  0  0  0
 10 12  1  0  0  0  0
 10 13  1  0  0  0  0
  2 14  1  0  0  0  0
 14 15  1  0  0  0  0
 15 16  1  0  0  0  0
 15 17  2  0  0  0  0
 17 18  1  0  0  0  0
 17 19  1  0  0  0  0
 19 20  1  0  0  0  0
 20 21  1  0  0  0  0
 21 22  1  0  0  0  0
 21 23  1  0  0  0  0
 21 24  1  0  0  0  0
 19 25  2  0  0  0  0
 25 26  1  0  0  0  0
 25 27  1  0  0  0  0
 27 14  2  0  0  0  0
 27 28  1  0  0  0  0
  1 29  1  0  0  0  0
 29 30  1  0  0  0  0
 30 31  1  0  0  0  0
 30 32  1  0  0  0  0
 32 33  3  0  0  0  0
 30 34  1  0  0  0  0
 34 35  1  0  0  0  0
 35 36  1  0  0  0  0
 35 37  2  0  0  0  0
 37 38  1  0  0  0  0
 37 39  1  0  0  0  0
 39 40  1  0  0  0  0
 39 41  2  0  0  0  0
 41 42  1  0  0  0  0
 42 43  1  0  0  0  0
 43 44  1  0  0  0  0
 44 45  1  0  0  0  0
 44 46  2  0  0  0  0
 46 47  1  0  0  0  0
 46 48  1  0  0  0  0
 48 49  1  0  0  0  0
 48 50  2  0  0  0  0
 50 51  1  0  0  0  0
 50 52  1  0  0  0  0
 52 43  2  0  0  0  0
 52 53  1  0  0  0  0
 41 54  1  0  0  0  0
 54 34  2  0  0  0  0
 54 55  1  0  0  0  0
  1 56  2  0  0  0  0
M  END
> <ChemID>
102862

> <source_casrn>
70124-77-5

> <CAS>
70124-77-5

> <SMILES>
CC(C)[C@H](C(=O)OC(C#N)c1cccc(c1)Oc1ccccc1)c1ccc(cc1)OC(F)F

> <NAME>
FLUCYTHRINATE

> <preferred_name>
Flucythrinate

> <iupac>
cyano(3-phenoxyphenyl)methyl (2S)-2-[4-(difluoromethoxy)phenyl]-3-methylbutanoate

> <MPID>
27262

> <dsstox_substance_id>
DTXSID0022301

> <Canonical_QSARr>
CC(C)C(C(=O)OC(C#N)c1cccc(c1)Oc1ccccc1)c1ccc(cc1)OC(F)F

> <InChI_Code_QSARr>
InChI=1S/C26H23F2NO4/c1-17(2)24(18-11-13-21(14-12-18)32-26(27)28)25(30)33-23(16-29)19-7-6-10-22(15-19)31-20-8-4-3-5-9-20/h3-15,17,23-24,26H,1-2H3

> <InChI Key_QSARr>
GBIHOLCMZGAKNG-UHFFFAOYSA-N

> <Salt_Solvent>
?

> <LogVP>
-8.0605

$$$$
102869
  -INDIGO-08031723152D

 21 23  0  0  0  0  0  0  0  0999 V2000
    0.0000    2.7713    0.0000 Cl  0  0  0  0  0  0  0  0  0  0  0  0
   -0.8000    1.3856    0.0000 C   0  0  0  0  0  0  0  0  0  0  0  0
    0.0000    0.0000    0.0000 C   0  0  0  0  0  0  0  0  0  0  0  0
    1.5651   -0.3327    0.0000 C   0  0  0  0  0  0  0  0  0  0  0  0
    1.7322   -1.9239    0.0000 C   0  0  0  0  0  0  0  0  0  0  0  0
    0.2707   -2.5747    0.0000 O   0  0  0  0  0  0  0  0  0  0  0  0
   -0.8000   -1.3856    0.0000 C   0  0  0  0  0  0  0  0  0  0  0  0
   -2.4000   -1.3856    0.0000 C   0  0  0  0  0  0  0  0  0  0  0  0
   -3.2000   -2.7713    0.0000 H   0  0  0  0  0  0  0  0  0  0  0  0
   -3.2000    0.0000    0.0000 C   0  0  0  0  0  0  0  0  0  0  0  0
   -4.8000    0.0000    0.0000 Cl  0  0  0  0  0  0  0  0  0  0  0  0
   -2.4000    1.3856    0.0000 C   0  0  0  0  0  0  0  0  0  0  0  0
   -3.2000    2.7713    0.0000 H   0  0  0  0  0  0  0  0  0  0  0  0
    3.1939   -2.5747    0.0000 C   0  0  0  0  0  0  0  0  0  0  0  0
    3.3612   -4.1659    0.0000 Cl  0  0  0  0  0  0  0  0  0  0  0  0
    4.4883   -1.6342    0.0000 C   0  0  0  0  0  0  0  0  0  0  0  0
    5.9501   -2.2850    0.0000 H   0  0  0  0  0  0  0  0  0  0  0  0
    4.3212   -0.0430    0.0000 C   0  0  0  0  0  0  0  0  0  0  0  0
    5.6156    0.8974    0.0000 Cl  0  0  0  0  0  0  0  0  0  0  0  0
    2.8595    0.6078    0.0000 C   0  0  0  0  0  0  0  0  0  0  0  0
    2.6921    2.1990    0.0000 H   0  0  0  0  0  0  0  0  0  0  0  0
  1  2  1  0  0  0  0
  2  3  1  0  0  0  0
  3  4  1  0  0  0  0
  4  5  1  0  0  0  0
  5  6  1  0  0  0  0
  6  7  1  0  0  0  0
  7  3  2  0  0  0  0
  7  8  1  0  0  0  0
  8  9  1  0  0  0  0
  8 10  2  0  0  0  0
 10 11  1  0  0  0  0
 10 12  1  0  0  0  0
 12  2  2  0  0  0  0
 12 13  1  0  0  0  0
  5 14  2  0  0  0  0
 14 15  1  0  0  0  0
 14 16  1  0  0  0  0
 16 17  1  0  0  0  0
 16 18  2  0  0  0  0
 18 19  1  0  0  0  0
 18 20  1  0  0  0  0
 20  4  2  0  0  0  0
 20 21  1  0  0  0  0
M  END
> <ChemID>
102869

> <source_casrn>
71998-72-6

> <CAS>
71998-72-6

> <SMILES>
Clc1cc(Cl)c2c(c1)oc1c2cc(Cl)cc1Cl

> <NAME>
DIBENZOFURAN, 1,3,6,8-TETRACHLORO-

> <preferred_name>
1,3,6,8-Tetrachlorodibenzofuran

> <iupac>
1,3,6,8-TETRACHLORODIBENZOFURAN

> <MPID>
27268

> <dsstox_substance_id>
DTXSID50222275

> <Canonical_QSARr>
Clc1cc(Cl)c2c(c1)oc1c2cc(Cl)cc1Cl

> <InChI_Code_QSARr>
InChI=1S/C12H4Cl4O/c13-5-1-7-11-8(15)2-6(14)4-10(11)17-12(7)9(16)3-5/h1-4H

> <InChI Key_QSARr>
BDXKVABZWRZKOS-UHFFFAOYSA-N

> <Salt_Solvent>
?

> <LogVP>
-7.5686

$$$$
102873
  -INDIGO-08031723152D

 27 28  0  0  0  0  0  0  0  0999 V2000
    0.0001   -0.0000    0.0000 C   0  0  0  0  0  0  0  0  0  0  0  0
    0.0001   -1.6000    0.0000 C   0  0  0  0  0  0  0  0  0  0  0  0
    1.3857   -2.4000    0.0000 H   0  0  0  0  0  0  0  0  0  0  0  0
   -1.3856   -2.4000    0.0000 C   0  0  0  0  0  0  0  0  0  0  0  0
   -1.3856   -4.0000    0.0000 H   0  0  0  0  0  0  0  0  0  0  0  0
   -2.7713   -1.6000    0.0000 C   0  0  0  0  0  0  0  0  0  0  0  0
   -4.1569   -2.4000    0.0000 H   0  0  0  0  0  0  0  0  0  0  0  0
   -2.7713   -0.0000    0.0000 C   0  0  0  0  0  0  0  0  0  0  0  0
   -4.1569    0.7999    0.0000 H   0  0  0  0  0  0  0  0  0  0  0  0
   -1.3856    0.7999    0.0000 C   0  0  0  0  0  0  0  0  0  0  0  0
   -1.3856    2.4000    0.0000 H   0  0  0  0  0  0  0  0  0  0  0  0
    1.3857    0.7999    0.0000 C   0  0  0  0  0  0  0  0  0  0  0  0
    1.9980    2.2782    0.0000 H   0  0  0  0  0  0  0  0  0  0  0  0
    0.7734    2.2782    0.0000 H   0  0  0  0  0  0  0  0  0  0  0  0
    2.7714   -0.0000    0.0000 O   0  0  0  0  0  0  0  0  0  0  0  0
    4.1568    0.7999    0.0000 C   0  0  0  0  0  0  0  0  0  0  0  0
    5.5425   -0.0000    0.0000 C   0  0  0  0  0  0  0  0  0  0  0  0
    7.0042    0.6508    0.0000 C   0  0  0  0  0  0  0  0  0  0  0  0
    7.3369    2.2158    0.0000 C   0  0  0  0  0  0  0  0  0  0  0  0
    7.6695    3.7809    0.0000 F   0  0  0  0  0  0  0  0  0  0  0  0
    8.8586    2.7103    0.0000 F   0  0  0  0  0  0  0  0  0  0  0  0
    6.1478    3.2865    0.0000 F   0  0  0  0  0  0  0  0  0  0  0  0
    8.0749   -0.5382    0.0000 N   0  0  0  0  0  0  0  0  0  0  0  0
    7.2749   -1.9239    0.0000 C   0  0  0  0  0  0  0  0  0  0  0  0
    7.9255   -3.3856    0.0000 Cl  0  0  0  0  0  0  0  0  0  0  0  0
    5.7097   -1.5912    0.0000 S   0  0  0  0  0  0  0  0  0  0  0  0
    4.1568    2.4000    0.0000 O   0  0  0  0  0  0  0  0  0  0  0  0
  1  2  1  0  0  0  0
  2  3  1  0  0  0  0
  2  4  2  0  0  0  0
  4  5  1  0  0  0  0
  4  6  1  0  0  0  0
  6  7  1  0  0  0  0
  6  8  2  0  0  0  0
  8  9  1  0  0  0  0
  8 10  1  0  0  0  0
 10  1  2  0  0  0  0
 10 11  1  0  0  0  0
  1 12  1  0  0  0  0
 12 13  1  0  0  0  0
 12 14  1  0  0  0  0
 12 15  1  0  0  0  0
 15 16  1  0  0  0  0
 16 17  1  0  0  0  0
 17 18  2  0  0  0  0
 18 19  1  0  0  0  0
 19 20  1  0  0  0  0
 19 21  1  0  0  0  0
 19 22  1  0  0  0  0
 18 23  1  0  0  0  0
 23 24  2  0  0  0  0
 24 25  1  0  0  0  0
 24 26  1  0  0  0  0
 26 17  1  0  0  0  0
 16 27  2  0  0  0  0
M  END
> <ChemID>
102873

> <source_casrn>
72850-64-7

> <CAS>
72850-64-7

> <SMILES>
O=C(OCc1ccccc1)c1[s]c(Cl)[n]c1C(F)(F)F

> <NAME>
Flurazole

> <preferred_name>
Flurazole

> <iupac>
benzyl 2-chloro-4-(trifluoromethyl)-1,3-thiazole-5-carboxylate

> <MPID>
27272

> <dsstox_substance_id>
DTXSID5052468

> <Canonical_QSARr>
O=C(OCc1ccccc1)c1[s]c(Cl)[n]c1C(F)(F)F

> <InChI_Code_QSARr>
InChI=1S/C12H7ClF3NO2S/c13-11-17-9(12(14,15)16)8(20-11)10(18)19-6-7-4-2-1-3-5-7/h1-5H,6H2

> <InChI Key_QSARr>
MKQSWTQPLLCSOB-UHFFFAOYSA-N

> <Salt_Solvent>
?

> <LogVP>
-6.5331

$$$$
102877
  -INDIGO-08031723152D

 27 28  0  0  0  0  0  0  0  0999 V2000
    8.8839   -0.0335    0.0000 C   0  0  0  0  0  0  0  0  0  0  0  0
   10.4597   -0.3113    0.0000 H   0  0  0  0  0  0  0  0  0  0  0  0
    8.3368    1.4700    0.0000 C   0  0  0  0  0  0  0  0  0  0  0  0
    9.3652    2.6957    0.0000 H   0  0  0  0  0  0  0  0  0  0  0  0
    6.7610    1.7479    0.0000 C   0  0  0  0  0  0  0  0  0  0  0  0
    6.2139    3.2513    0.0000 H   0  0  0  0  0  0  0  0  0  0  0  0
    5.7326    0.5222    0.0000 C   0  0  0  0  0  0  0  0  0  0  0  0
    4.1568    0.8000    0.0000 O   0  0  0  0  0  0  0  0  0  0  0  0
    2.7713    0.0001    0.0000 C   0  0  0  0  0  0  0  0  0  0  0  0
    2.7713   -1.6000    0.0000 C   0  0  0  0  0  0  0  0  0  0  0  0
    4.1568   -2.4000    0.0000 H   0  0  0  0  0  0  0  0  0  0  0  0
    1.3857   -2.4000    0.0000 C   0  0  0  0  0  0  0  0  0  0  0  0
    1.3857   -4.0000    0.0000 H   0  0  0  0  0  0  0  0  0  0  0  0
    0.0001   -1.6000    0.0000 C   0  0  0  0  0  0  0  0  0  0  0  0
   -1.3857   -2.4000    0.0000 N   0  0  0  0  0  0  0  0  0  0  0  0
   -1.3857   -4.0000    0.0000 O   0  0  0  0  0  0  0  0  0  0  0  0
   -2.7713   -1.6000    0.0000 O   0  0  0  0  0  0  0  0  0  0  0  0
    0.0001    0.0001    0.0000 C   0  0  0  0  0  0  0  0  0  0  0  0
   -1.3857    0.8000    0.0000 N   0  0  0  0  0  0  0  0  0  0  0  0
   -1.3857    2.4000    0.0000 H   0  0  0  0  0  0  0  0  0  0  0  0
   -2.7713    0.0001    0.0000 H   0  0  0  0  0  0  0  0  0  0  0  0
    1.3857    0.8000    0.0000 C   0  0  0  0  0  0  0  0  0  0  0  0
    1.3857    2.4000    0.0000 Cl  0  0  0  0  0  0  0  0  0  0  0  0
    6.2799   -0.9813    0.0000 C   0  0  0  0  0  0  0  0  0  0  0  0
    5.2513   -2.2071    0.0000 H   0  0  0  0  0  0  0  0  0  0  0  0
    7.8555   -1.2591    0.0000 C   0  0  0  0  0  0  0  0  0  0  0  0
    8.4028   -2.7627    0.0000 H   0  0  0  0  0  0  0  0  0  0  0  0
  1  2  1  0  0  0  0
  1  3  1  0  0  0  0
  3  4  1  0  0  0  0
  3  5  2  0  0  0  0
  5  6  1  0  0  0  0
  5  7  1  0  0  0  0
  7  8  1  0  0  0  0
  8  9  1  0  0  0  0
  9 10  1  0  0  0  0
 10 11  1  0  0  0  0
 10 12  2  0  0  0  0
 12 13  1  0  0  0  0
 12 14  1  0  0  0  0
 14 15  1  0  0  0  0
 15 16  1  0  0  0  0
 15 17  2  0  0  0  0
 14 18  2  0  0  0  0
 18 19  1  0  0  0  0
 19 20  1  0  0  0  0
 19 21  1  0  0  0  0
 18 22  1  0  0  0  0
 22  9  2  0  0  0  0
 22 23  1  0  0  0  0
  7 24  2  0  0  0  0
 24 25  1  0  0  0  0
 24 26  1  0  0  0  0
 26  1  2  0  0  0  0
 26 27  1  0  0  0  0
M  CHG  2  15   1  16  -1
M  END
> <ChemID>
102877

> <source_casrn>
74070-46-5

> <CAS>
74070-46-5

> <SMILES>
Nc1c(Cl)c(ccc1[N+]([O-])=O)Oc1ccccc1

> <NAME>
ACLONIFEN

> <preferred_name>
Aclonifen

> <iupac>
2-chloro-6-nitro-3-phenoxyaniline

> <MPID>
27276

> <dsstox_substance_id>
DTXSID7058175

> <Canonical_QSARr>
Nc1c(Cl)c(ccc1[N+]([O-])=O)Oc1ccccc1

> <InChI_Code_QSARr>
InChI=1S/C12H9ClN2O3/c13-11-10(18-8-4-2-1-3-5-8)7-6-9(12(11)14)15(16)17/h1-7H,14H2

> <InChI Key_QSARr>
DDBMQDADIHOWIC-UHFFFAOYSA-N

> <Salt_Solvent>
?

> <LogVP>
-6.9208

$$$$
102882
  -INDIGO-08031723152D

 43 45  0  0  0  0  0  0  0  0999 V2000
   -8.3138    0.0001    0.0000 N   0  0  0  0  0  0  0  0  0  0  0  0
   -8.3138    1.6001    0.0000 C   0  0  0  0  0  0  0  0  0  0  0  0
   -6.9283    2.4000    0.0000 O   0  0  0  0  0  0  0  0  0  0  0  0
   -5.5427    1.6001    0.0000 C   0  0  0  0  0  0  0  0  0  0  0  0
   -5.5427    0.0001    0.0000 C   0  0  0  0  0  0  0  0  0  0  0  0
   -6.9283   -0.8000    0.0000 H   0  0  0  0  0  0  0  0  0  0  0  0
   -4.1569   -0.8000    0.0000 C   0  0  0  0  0  0  0  0  0  0  0  0
   -4.1569   -2.4000    0.0000 H   0  0  0  0  0  0  0  0  0  0  0  0
   -2.7713    0.0001    0.0000 C   0  0  0  0  0  0  0  0  0  0  0  0
   -1.3857   -0.8000    0.0000 O   0  0  0  0  0  0  0  0  0  0  0  0
    0.0001    0.0001    0.0000 C   0  0  0  0  0  0  0  0  0  0  0  0
   -0.8001    1.3856    0.0000 H   0  0  0  0  0  0  0  0  0  0  0  0
    0.8001   -1.3856    0.0000 C   0  0  0  0  0  0  0  0  0  0  0  0
    2.4001   -1.3856    0.0000 O   0  0  0  0  0  0  0  0  0  0  0  0
    0.0001   -2.7712    0.0000 O   0  0  0  0  0  0  0  0  0  0  0  0
    0.8001   -4.1569    0.0000 C   0  0  0  0  0  0  0  0  0  0  0  0
    2.2783   -3.5446    0.0000 H   0  0  0  0  0  0  0  0  0  0  0  0
    2.2783   -4.7692    0.0000 H   0  0  0  0  0  0  0  0  0  0  0  0
    0.0001   -5.5425    0.0000 C   0  0  0  0  0  0  0  0  0  0  0  0
    0.8001   -6.9282    0.0000 H   0  0  0  0  0  0  0  0  0  0  0  0
   -0.8001   -6.9282    0.0000 H   0  0  0  0  0  0  0  0  0  0  0  0
   -1.6001   -5.5425    0.0000 H   0  0  0  0  0  0  0  0  0  0  0  0
    1.3857    0.8000    0.0000 C   0  0  0  0  0  0  0  0  0  0  0  0
    2.7713    1.6001    0.0000 H   0  0  0  0  0  0  0  0  0  0  0  0
    2.7713    0.0001    0.0000 H   0  0  0  0  0  0  0  0  0  0  0  0
    1.3857    2.4000    0.0000 H   0  0  0  0  0  0  0  0  0  0  0  0
   -2.7713    1.6001    0.0000 C   0  0  0  0  0  0  0  0  0  0  0  0
   -1.3857    2.4000    0.0000 H   0  0  0  0  0  0  0  0  0  0  0  0
   -4.1569    2.4000    0.0000 C   0  0  0  0  0  0  0  0  0  0  0  0
   -4.1569    4.0000    0.0000 H   0  0  0  0  0  0  0  0  0  0  0  0
   -9.6994    2.4000    0.0000 C   0  0  0  0  0  0  0  0  0  0  0  0
   -9.6994    4.0000    0.0000 H   0  0  0  0  0  0  0  0  0  0  0  0
  -11.0850    1.6001    0.0000 N   0  0  0  0  0  0  0  0  0  0  0  0
  -11.0850    0.0001    0.0000 C   0  0  0  0  0  0  0  0  0  0  0  0
   -9.6994   -0.8000    0.0000 C   0  0  0  0  0  0  0  0  0  0  0  0
   -9.6994   -2.4000    0.0000 C   0  0  0  0  0  0  0  0  0  0  0  0
   -8.3138   -3.1999    0.0000 H   0  0  0  0  0  0  0  0  0  0  0  0
  -11.0850   -3.1999    0.0000 C   0  0  0  0  0  0  0  0  0  0  0  0
  -11.0850   -4.7999    0.0000 H   0  0  0  0  0  0  0  0  0  0  0  0
  -12.4708   -2.4000    0.0000 C   0  0  0  0  0  0  0  0  0  0  0  0
  -12.4708   -0.8000    0.0000 C   0  0  0  0  0  0  0  0  0  0  0  0
  -13.8564    0.0001    0.0000 H   0  0  0  0  0  0  0  0  0  0  0  0
  -13.8564   -3.1999    0.0000 Cl  0  0  0  0  0  0  0  0  0  0  0  0
  1  2  1  0  0  0  0
  2  3  1  0  0  0  0
  3  4  1  0  0  0  0
  4  5  1  0  0  0  0
  5  6  1  0  0  0  0
  5  7  2  0  0  0  0
  7  8  1  0  0  0  0
  7  9  1  0  0  0  0
  9 10  1  0  0  0  0
 10 11  1  0  0  0  0
 11 12  1  0  0  0  0
 11 13  1  0  0  0  0
 13 14  2  0  0  0  0
 13 15  1  0  0  0  0
 15 16  1  0  0  0  0
 16 17  1  0  0  0  0
 16 18  1  0  0  0  0
 16 19  1  0  0  0  0
 19 20  1  0  0  0  0
 19 21  1  0  0  0  0
 19 22  1  0  0  0  0
 11 23  1  0  0  0  0
 23 24  1  0  0  0  0
 23 25  1  0  0  0  0
 23 26  1  0  0  0  0
  9 27  2  0  0  0  0
 27 28  1  0  0  0  0
 27 29  1  0  0  0  0
 29  4  2  0  0  0  0
 29 30  1  0  0  0  0
  2 31  2  0  0  0  0
 31 32  1  0  0  0  0
 31 33  1  0  0  0  0
 33 34  2  0  0  0  0
 34 35  1  0  0  0  0
 35  1  2  0  0  0  0
 35 36  1  0  0  0  0
 36 37  1  0  0  0  0
 36 38  2  0  0  0  0
 38 39  1  0  0  0  0
 38 40  1  0  0  0  0
 40 41  2  0  0  0  0
 41 34  1  0  0  0  0
 41 42  1  0  0  0  0
 40 43  1  0  0  0  0
M  END
> <ChemID>
102882

> <source_casrn>
76578-14-8

> <CAS>
76578-14-8

> <SMILES>
CCOC(=O)C(C)Oc1ccc(cc1)Oc1c[n]c2cc(Cl)ccc2[n]1

> <NAME>
QUIZALOFOP-ETHYL

> <preferred_name>
Quizalofop-ethyl

> <iupac>
ethyl 2-{4-[(6-chloroquinoxalin-2-yl)oxy]phenoxy}propanoate

> <MPID>
27280

> <dsstox_substance_id>
DTXSID9023889

> <Canonical_QSARr>
CCOC(=O)C(C)Oc1ccc(cc1)Oc1c[n]c2cc(Cl)ccc2[n]1

> <InChI_Code_QSARr>
InChI=1S/C19H17ClN2O4/c1-3-24-19(23)12(2)25-14-5-7-15(8-6-14)26-18-11-21-17-10-13(20)4-9-16(17)22-18/h4-12H,3H2,1-2H3

> <InChI Key_QSARr>
OSUHJPCHFDQAIT-UHFFFAOYSA-N

> <Salt_Solvent>
?

> <LogVP>
-8.1878

$$$$
102886
  -INDIGO-08031723152D

 46 47  0  0  0  0  0  0  0  0999 V2000
   -1.3856    2.4001    0.0000 C   0  0  0  0  0  0  0  0  0  0  0  0
    0.0000    3.2000    0.0000 O   0  0  0  0  0  0  0  0  0  0  0  0
   -2.7713    3.2000    0.0000 C   0  0  0  0  0  0  0  0  0  0  0  0
   -2.7713    4.8000    0.0000 C   0  0  0  0  0  0  0  0  0  0  0  0
   -1.3856    5.6001    0.0000 N   0  0  0  0  0  0  0  0  0  0  0  0
   -1.3856    7.2000    0.0000 O   0  0  0  0  0  0  0  0  0  0  0  0
    0.0000    4.8000    0.0000 O   0  0  0  0  0  0  0  0  0  0  0  0
   -4.1569    5.6001    0.0000 C   0  0  0  0  0  0  0  0  0  0  0  0
   -4.1569    7.2000    0.0000 H   0  0  0  0  0  0  0  0  0  0  0  0
   -5.5425    4.8000    0.0000 C   0  0  0  0  0  0  0  0  0  0  0  0
   -6.9282    5.6001    0.0000 H   0  0  0  0  0  0  0  0  0  0  0  0
   -5.5425    3.2000    0.0000 C   0  0  0  0  0  0  0  0  0  0  0  0
   -6.9282    2.4001    0.0000 O   0  0  0  0  0  0  0  0  0  0  0  0
   -8.5040    2.6778    0.0000 C   0  0  0  0  0  0  0  0  0  0  0  0
   -9.0512    4.1813    0.0000 C   0  0  0  0  0  0  0  0  0  0  0  0
   -8.0228    5.4070    0.0000 Cl  0  0  0  0  0  0  0  0  0  0  0  0
  -10.6267    4.4592    0.0000 C   0  0  0  0  0  0  0  0  0  0  0  0
  -11.1741    5.9627    0.0000 H   0  0  0  0  0  0  0  0  0  0  0  0
  -11.6553    3.2335    0.0000 C   0  0  0  0  0  0  0  0  0  0  0  0
  -13.2309    3.5113    0.0000 C   0  0  0  0  0  0  0  0  0  0  0  0
  -14.8067    3.7892    0.0000 F   0  0  0  0  0  0  0  0  0  0  0  0
  -14.2595    2.2856    0.0000 F   0  0  0  0  0  0  0  0  0  0  0  0
  -13.7783    5.0149    0.0000 F   0  0  0  0  0  0  0  0  0  0  0  0
  -11.1081    1.7299    0.0000 C   0  0  0  0  0  0  0  0  0  0  0  0
  -12.1365    0.5044    0.0000 H   0  0  0  0  0  0  0  0  0  0  0  0
   -9.5323    1.4522    0.0000 C   0  0  0  0  0  0  0  0  0  0  0  0
   -8.9852   -0.0513    0.0000 H   0  0  0  0  0  0  0  0  0  0  0  0
   -4.1569    2.4001    0.0000 C   0  0  0  0  0  0  0  0  0  0  0  0
   -4.1569    0.8000    0.0000 H   0  0  0  0  0  0  0  0  0  0  0  0
   -1.3856    0.8000    0.0000 O   0  0  0  0  0  0  0  0  0  0  0  0
    0.0000    0.0000    0.0000 C   0  0  0  0  0  0  0  0  0  0  0  0
    0.8001    1.3857    0.0000 H   0  0  0  0  0  0  0  0  0  0  0  0
   -0.8001   -1.3856    0.0000 C   0  0  0  0  0  0  0  0  0  0  0  0
   -2.4000   -1.3856    0.0000 O   0  0  0  0  0  0  0  0  0  0  0  0
   -3.1999   -2.7713    0.0000 C   0  0  0  0  0  0  0  0  0  0  0  0
   -1.9307   -3.7453    0.0000 H   0  0  0  0  0  0  0  0  0  0  0  0
   -2.9912   -4.3576    0.0000 H   0  0  0  0  0  0  0  0  0  0  0  0
   -4.8001   -2.7713    0.0000 C   0  0  0  0  0  0  0  0  0  0  0  0
   -5.5999   -4.1569    0.0000 H   0  0  0  0  0  0  0  0  0  0  0  0
   -6.4000   -2.7713    0.0000 H   0  0  0  0  0  0  0  0  0  0  0  0
   -4.0000   -4.1569    0.0000 H   0  0  0  0  0  0  0  0  0  0  0  0
    0.0000   -2.7713    0.0000 O   0  0  0  0  0  0  0  0  0  0  0  0
    1.3856   -0.7999    0.0000 C   0  0  0  0  0  0  0  0  0  0  0  0
    2.7713   -1.6001    0.0000 H   0  0  0  0  0  0  0  0  0  0  0  0
    1.3856   -2.4000    0.0000 H   0  0  0  0  0  0  0  0  0  0  0  0
    2.7713    0.0000    0.0000 H   0  0  0  0  0  0  0  0  0  0  0  0
  1  2  2  0  0  0  0
  1  3  1  0  0  0  0
  3  4  1  0  0  0  0
  4  5  1  0  0  0  0
  5  6  1  0  0  0  0
  5  7  2  0  0  0  0
  4  8  2  0  0  0  0
  8  9  1  0  0  0  0
  8 10  1  0  0  0  0
 10 11  1  0  0  0  0
 10 12  2  0  0  0  0
 12 13  1  0  0  0  0
 13 14  1  0  0  0  0
 14 15  1  0  0  0  0
 15 16  1  0  0  0  0
 15 17  2  0  0  0  0
 17 18  1  0  0  0  0
 17 19  1  0  0  0  0
 19 20  1  0  0  0  0
 20 21  1  0  0  0  0
 20 22  1  0  0  0  0
 20 23  1  0  0  0  0
 19 24  2  0  0  0  0
 24 25  1  0  0  0  0
 24 26  1  0  0  0  0
 26 14  2  0  0  0  0
 26 27  1  0  0  0  0
 12 28  1  0  0  0  0
 28  3  2  0  0  0  0
 28 29  1  0  0  0  0
  1 30  1  0  0  0  0
 30 31  1  0  0  0  0
 31 32  1  0  0  0  0
 31 33  1  0  0  0  0
 33 34  1  0  0  0  0
 34 35  1  0  0  0  0
 35 36  1  0  0  0  0
 35 37  1  0  0  0  0
 35 38  1  0  0  0  0
 38 39  1  0  0  0  0
 38 40  1  0  0  0  0
 38 41  1  0  0  0  0
 33 42  2  0  0  0  0
 31 43  1  0  0  0  0
 43 44  1  0  0  0  0
 43 45  1  0  0  0  0
 43 46  1  0  0  0  0
M  CHG  2   5   1   6  -1
M  END
> <ChemID>
102886

> <source_casrn>
77501-63-4

> <CAS>
77501-63-4

> <SMILES>
CCOC(=O)C(C)OC(=O)c1cc(ccc1[N+]([O-])=O)Oc1ccc(cc1Cl)C(F)(F)F

> <NAME>
LACTOFEN

> <preferred_name>
Lactofen

> <iupac>
1-ethoxy-1-oxopropan-2-yl 5-[2-chloro-4-(trifluoromethyl)phenoxy]-2-nitrobenzoate

> <MPID>
27284

> <dsstox_substance_id>
DTXSID7024160

> <Canonical_QSARr>
CCOC(=O)C(C)OC(=O)c1cc(ccc1[N+]([O-])=O)Oc1ccc(cc1Cl)C(F)(F)F

> <InChI_Code_QSARr>
InChI=1S/C19H15ClF3NO7/c1-3-29-17(25)10(2)30-18(26)13-9-12(5-6-15(13)24(27)28)31-16-7-4-11(8-14(16)20)19(21,22)23/h4-10H,3H2,1-2H3

> <InChI Key_QSARr>
CONWAEURSVPLRM-UHFFFAOYSA-N

> <Salt_Solvent>
?

> <LogVP>
-7.1549

$$$$
102892
  -INDIGO-08031723152D

 41 42  0  0  0  0  0  0  0  0999 V2000
    1.3857    0.8001    0.0000 C   0  0  0  0  0  0  0  0  0  0  0  0
    2.4142   -0.4256    0.0000 H   0  0  0  0  0  0  0  0  0  0  0  0
   -0.0000    0.0000    0.0000 C   0  0  0  0  0  0  0  0  0  0  0  0
    0.5473   -1.5035    0.0000 C   0  0  0  0  0  0  0  0  0  0  0  0
    1.0946   -3.0070    0.0000 H   0  0  0  0  0  0  0  0  0  0  0  0
   -0.4812   -2.7292    0.0000 H   0  0  0  0  0  0  0  0  0  0  0  0
    2.1228   -1.7814    0.0000 H   0  0  0  0  0  0  0  0  0  0  0  0
   -1.5756   -0.2779    0.0000 C   0  0  0  0  0  0  0  0  0  0  0  0
   -3.1514   -0.5557    0.0000 H   0  0  0  0  0  0  0  0  0  0  0  0
   -2.1229   -1.7814    0.0000 H   0  0  0  0  0  0  0  0  0  0  0  0
   -2.6041    0.9478    0.0000 H   0  0  0  0  0  0  0  0  0  0  0  0
   -0.0000    1.6000    0.0000 C   0  0  0  0  0  0  0  0  0  0  0  0
   -1.5756    1.8778    0.0000 H   0  0  0  0  0  0  0  0  0  0  0  0
    0.8000    2.9856    0.0000 C   0  0  0  0  0  0  0  0  0  0  0  0
    1.6553    3.4214    0.0000 H   0  0  0  0  0  0  0  0  0  0  0  0
   -0.0000    4.3713    0.0000 C   0  0  0  0  0  0  0  0  0  0  0  0
    0.8000    5.7569    0.0000 C   0  0  0  0  0  0  0  0  0  0  0  0
    1.6000    7.1426    0.0000 F   0  0  0  0  0  0  0  0  0  0  0  0
   -0.0000    7.1426    0.0000 F   0  0  0  0  0  0  0  0  0  0  0  0
    2.4000    5.7569    0.0000 F   0  0  0  0  0  0  0  0  0  0  0  0
   -1.6001    4.3713    0.0000 Cl  0  0  0  0  0  0  0  0  0  0  0  0
    2.4142    2.0257    0.0000 C   0  0  0  0  0  0  0  0  0  0  0  0
    2.4000    2.9856    0.0000 O   0  0  0  0  0  0  0  0  0  0  0  0
    3.9898    1.7479    0.0000 O   0  0  0  0  0  0  0  0  0  0  0  0
    5.0182    2.9735    0.0000 C   0  0  0  0  0  0  0  0  0  0  0  0
    5.0880    4.5720    0.0000 H   0  0  0  0  0  0  0  0  0  0  0  0
    3.9374    4.1532    0.0000 H   0  0  0  0  0  0  0  0  0  0  0  0
    6.5940    2.6957    0.0000 C   0  0  0  0  0  0  0  0  0  0  0  0
    7.6225    3.9214    0.0000 C   0  0  0  0  0  0  0  0  0  0  0  0
    7.0752    5.4249    0.0000 F   0  0  0  0  0  0  0  0  0  0  0  0
    9.1981    3.6435    0.0000 C   0  0  0  0  0  0  0  0  0  0  0  0
   10.2266    4.8692    0.0000 F   0  0  0  0  0  0  0  0  0  0  0  0
    9.7454    2.1400    0.0000 C   0  0  0  0  0  0  0  0  0  0  0  0
   11.3209    1.8622    0.0000 C   0  0  0  0  0  0  0  0  0  0  0  0
   12.8967    1.5843    0.0000 H   0  0  0  0  0  0  0  0  0  0  0  0
   12.3494    3.0878    0.0000 H   0  0  0  0  0  0  0  0  0  0  0  0
   11.8682    0.3587    0.0000 H   0  0  0  0  0  0  0  0  0  0  0  0
    8.7169    0.9144    0.0000 C   0  0  0  0  0  0  0  0  0  0  0  0
    9.2642   -0.5891    0.0000 F   0  0  0  0  0  0  0  0  0  0  0  0
    7.1411    1.1922    0.0000 C   0  0  0  0  0  0  0  0  0  0  0  0
    6.1126   -0.0335    0.0000 F   0  0  0  0  0  0  0  0  0  0  0  0
  1  2  1  0  0  0  0
  1  3  1  0  0  0  0
  3  4  1  0  0  0  0
  4  5  1  0  0  0  0
  4  6  1  0  0  0  0
  4  7  1  0  0  0  0
  3  8  1  0  0  0  0
  8  9  1  0  0  0  0
  8 10  1  0  0  0  0
  8 11  1  0  0  0  0
  3 12  1  0  0  0  0
 12  1  1  0  0  0  0
 12 13  1  0  0  0  0
 12 14  1  0  0  0  0
 14 15  1  0  0  0  0
 14 16  2  0  0  0  0
 16 17  1  0  0  0  0
 17 18  1  0  0  0  0
 17 19  1  0  0  0  0
 17 20  1  0  0  0  0
 16 21  1  0  0  0  0
  1 22  1  0  0  0  0
 22 23  2  0  0  0  0
 22 24  1  0  0  0  0
 24 25  1  0  0  0  0
 25 26  1  0  0  0  0
 25 27  1  0  0  0  0
 25 28  1  0  0  0  0
 28 29  1  0  0  0  0
 29 30  1  0  0  0  0
 29 31  2  0  0  0  0
 31 32  1  0  0  0  0
 31 33  1  0  0  0  0
 33 34  1  0  0  0  0
 34 35  1  0  0  0  0
 34 36  1  0  0  0  0
 34 37  1  0  0  0  0
 33 38  2  0  0  0  0
 38 39  1  0  0  0  0
 38 40  1  0  0  0  0
 40 28  2  0  0  0  0
 40 41  1  0  0  0  0
M  END
> <ChemID>
102892

> <source_casrn>
79538-32-2

> <CAS>
79538-32-2

> <SMILES>
CC1(C)C(/C=C(\Cl)/C(F)(F)F)C1C(=O)OCc1c(F)c(F)c(C)c(F)c1F

> <NAME>
TETRAFLUTHRIN

> <preferred_name>
Tefluthrin

> <iupac>
2,3,5,6-tetrafluoro-4-methylbenzyl 3-[(1Z)-2-chloro-3,3,3-trifluoroprop-1-en-1-yl]-2,2-dimethylcyclopropanecarboxylate

> <MPID>
27290

> <dsstox_substance_id>
DTXSID5032577

> <Canonical_QSARr>
CC1(C)C(C=C(Cl)C(F)(F)F)C1C(=O)OCc1c(F)c(F)c(C)c(F)c1F

> <InChI_Code_QSARr>
InChI=1S/C17H14ClF7O2/c1-6-11(19)13(21)7(14(22)12(6)20)5-27-15(26)10-8(16(10,2)3)4-9(18)17(23,24)25/h4,8,10H,5H2,1-3H3/b9-4-

> <InChI Key_QSARr>
ZFHGXWPMULPQSE-WTKPLQERSA-N

> <Salt_Solvent>
?

> <LogVP>
-4.2218

$$$$
102898
  -INDIGO-08031723152D

 39 41  0  0  0  0  0  0  0  0999 V2000
    2.4001    4.1569    0.0000 C   0  0  0  0  0  0  0  0  0  0  0  0
    3.1999    5.5426    0.0000 H   0  0  0  0  0  0  0  0  0  0  0  0
    0.8000    4.1569    0.0000 C   0  0  0  0  0  0  0  0  0  0  0  0
    0.0000    5.5426    0.0000 H   0  0  0  0  0  0  0  0  0  0  0  0
    0.0000    2.7712    0.0000 C   0  0  0  0  0  0  0  0  0  0  0  0
   -1.6001    2.7712    0.0000 H   0  0  0  0  0  0  0  0  0  0  0  0
    0.8000    1.3856    0.0000 C   0  0  0  0  0  0  0  0  0  0  0  0
    0.0000   -0.0001    0.0000 C   0  0  0  0  0  0  0  0  0  0  0  0
   -1.3856    0.8000    0.0000 H   0  0  0  0  0  0  0  0  0  0  0  0
   -0.8000   -1.3856    0.0000 C   0  0  0  0  0  0  0  0  0  0  0  0
    0.0000   -2.7712    0.0000 C   0  0  0  0  0  0  0  0  0  0  0  0
    1.6001   -2.7712    0.0000 H   0  0  0  0  0  0  0  0  0  0  0  0
   -0.8000   -4.1569    0.0000 C   0  0  0  0  0  0  0  0  0  0  0  0
    0.0000   -5.5426    0.0000 Cl  0  0  0  0  0  0  0  0  0  0  0  0
   -2.3999   -4.1569    0.0000 C   0  0  0  0  0  0  0  0  0  0  0  0
   -3.1999   -5.5426    0.0000 H   0  0  0  0  0  0  0  0  0  0  0  0
   -3.1999   -2.7712    0.0000 C   0  0  0  0  0  0  0  0  0  0  0  0
   -4.8000   -2.7712    0.0000 H   0  0  0  0  0  0  0  0  0  0  0  0
   -2.3999   -1.3856    0.0000 C   0  0  0  0  0  0  0  0  0  0  0  0
   -3.1999   -0.0001    0.0000 N   0  0  0  0  0  0  0  0  0  0  0  0
   -2.3999    1.3856    0.0000 H   0  0  0  0  0  0  0  0  0  0  0  0
   -4.8000    0.0001    0.0000 C   0  0  0  0  0  0  0  0  0  0  0  0
   -5.6000    1.3856    0.0000 C   0  0  0  0  0  0  0  0  0  0  0  0
   -7.1999    1.3856    0.0000 C   0  0  0  0  0  0  0  0  0  0  0  0
   -7.9999    0.0001    0.0000 H   0  0  0  0  0  0  0  0  0  0  0  0
   -7.9999    2.7712    0.0000 C   0  0  0  0  0  0  0  0  0  0  0  0
   -9.6000    2.7712    0.0000 H   0  0  0  0  0  0  0  0  0  0  0  0
   -7.1999    4.1569    0.0000 N   0  0  0  0  0  0  0  0  0  0  0  0
   -5.6000    4.1569    0.0000 C   0  0  0  0  0  0  0  0  0  0  0  0
   -4.8000    5.5426    0.0000 H   0  0  0  0  0  0  0  0  0  0  0  0
   -4.8000    2.7712    0.0000 C   0  0  0  0  0  0  0  0  0  0  0  0
   -3.1999    2.7712    0.0000 H   0  0  0  0  0  0  0  0  0  0  0  0
   -5.6000   -1.3856    0.0000 O   0  0  0  0  0  0  0  0  0  0  0  0
    1.0286   -1.2257    0.0000 O   0  0  0  0  0  0  0  0  0  0  0  0
    2.6042   -0.9478    0.0000 H   0  0  0  0  0  0  0  0  0  0  0  0
    2.4001    1.3856    0.0000 C   0  0  0  0  0  0  0  0  0  0  0  0
    3.1999    0.0001    0.0000 H   0  0  0  0  0  0  0  0  0  0  0  0
    3.1999    2.7712    0.0000 C   0  0  0  0  0  0  0  0  0  0  0  0
    4.8000    2.7712    0.0000 H   0  0  0  0  0  0  0  0  0  0  0  0
  1  2  1  0  0  0  0
  1  3  1  0  0  0  0
  3  4  1  0  0  0  0
  3  5  2  0  0  0  0
  5  6  1  0  0  0  0
  5  7  1  0  0  0  0
  7  8  1  0  0  0  0
  8  9  1  0  0  0  0
  8 10  1  0  0  0  0
 10 11  1  0  0  0  0
 11 12  1  0  0  0  0
 11 13  2  0  0  0  0
 13 14  1  0  0  0  0
 13 15  1  0  0  0  0
 15 16  1  0  0  0  0
 15 17  2  0  0  0  0
 17 18  1  0  0  0  0
 17 19  1  0  0  0  0
 19 10  2  0  0  0  0
 19 20  1  0  0  0  0
 20 21  1  0  0  0  0
 20 22  1  0  0  0  0
 22 23  1  0  0  0  0
 23 24  1  0  0  0  0
 24 25  1  0  0  0  0
 24 26  2  0  0  0  0
 26 27  1  0  0  0  0
 26 28  1  0  0  0  0
 28 29  2  0  0  0  0
 29 30  1  0  0  0  0
 29 31  1  0  0  0  0
 31 23  2  0  0  0  0
 31 32  1  0  0  0  0
 22 33  2  0  0  0  0
  8 34  1  0  0  0  0
 34 35  1  0  0  0  0
  7 36  2  0  0  0  0
 36 37  1  0  0  0  0
 36 38  1  0  0  0  0
 38  1  2  0  0  0  0
 38 39  1  0  0  0  0
M  END
> <ChemID>
102898

> <source_casrn>
82211-24-3

> <CAS>
82211-24-3

> <SMILES>
OC(c1cc(Cl)ccc1NC(=O)c1cc[n]cc1)c1ccccc1

> <NAME>
Inabenfide

> <preferred_name>
Inabenfide

> <iupac>
N-{4-chloro-2-[hydroxy(phenyl)methyl]phenyl}isonicotinamide

> <MPID>
27294

> <dsstox_substance_id>
DTXSID0058192

> <Canonical_QSARr>
OC(c1cc(Cl)ccc1NC(=O)c1cc[n]cc1)c1ccccc1

> <InChI_Code_QSARr>
InChI=1S/C19H15ClN2O2/c20-15-6-7-17(22-19(24)14-8-10-21-11-9-14)16(12-15)18(23)13-4-2-1-3-5-13/h1-12,18,23H,(H,22,24)

> <InChI Key_QSARr>
PFDCOZXELJAUTR-UHFFFAOYSA-N

> <Salt_Solvent>
?

> <LogVP>
-6.3251

$$$$
102902
  -INDIGO-08031723152D

 49 51  0  0  0  0  0  0  0  0999 V2000
   11.1912   -2.9385    0.0000 C   0  0  0  0  0  0  0  0  0  0  0  0
   12.7912   -2.9385    0.0000 H   0  0  0  0  0  0  0  0  0  0  0  0
   11.9913   -4.3243    0.0000 H   0  0  0  0  0  0  0  0  0  0  0  0
   11.9913   -1.5530    0.0000 H   0  0  0  0  0  0  0  0  0  0  0  0
    9.5914   -2.9385    0.0000 C   0  0  0  0  0  0  0  0  0  0  0  0
    8.7912   -1.5530    0.0000 C   0  0  0  0  0  0  0  0  0  0  0  0
    9.5914   -0.1672    0.0000 H   0  0  0  0  0  0  0  0  0  0  0  0
    7.1911   -1.5530    0.0000 C   0  0  0  0  0  0  0  0  0  0  0  0
    6.3912   -0.1672    0.0000 H   0  0  0  0  0  0  0  0  0  0  0  0
    6.3912   -2.9385    0.0000 C   0  0  0  0  0  0  0  0  0  0  0  0
    4.7911   -2.9385    0.0000 C   0  0  0  0  0  0  0  0  0  0  0  0
    3.9912   -1.5530    0.0000 C   0  0  0  0  0  0  0  0  0  0  0  0
    4.2002    0.0334    0.0000 H   0  0  0  0  0  0  0  0  0  0  0  0
    5.2606   -0.5789    0.0000 H   0  0  0  0  0  0  0  0  0  0  0  0
    2.3912   -1.5530    0.0000 O   0  0  0  0  0  0  0  0  0  0  0  0
    1.5913   -0.1672    0.0000 C   0  0  0  0  0  0  0  0  0  0  0  0
   -0.0000   -0.0000    0.0000 C   0  0  0  0  0  0  0  0  0  0  0  0
   -1.0706   -1.1890    0.0000 C   0  0  0  0  0  0  0  0  0  0  0  0
   -0.8481   -2.7735    0.0000 C   0  0  0  0  0  0  0  0  0  0  0  0
    0.6356   -3.3729    0.0000 C   0  0  0  0  0  0  0  0  0  0  0  0
    1.8964   -2.3877    0.0000 H   0  0  0  0  0  0  0  0  0  0  0  0
    0.8583   -4.9573    0.0000 C   0  0  0  0  0  0  0  0  0  0  0  0
    2.3417   -5.5566    0.0000 H   0  0  0  0  0  0  0  0  0  0  0  0
   -0.4025   -5.9423    0.0000 C   0  0  0  0  0  0  0  0  0  0  0  0
   -0.1800   -7.5267    0.0000 Cl  0  0  0  0  0  0  0  0  0  0  0  0
   -1.8862   -5.3429    0.0000 C   0  0  0  0  0  0  0  0  0  0  0  0
   -3.1470   -6.3280    0.0000 C   0  0  0  0  0  0  0  0  0  0  0  0
   -4.4076   -7.3130    0.0000 H   0  0  0  0  0  0  0  0  0  0  0  0
   -2.9242   -7.9124    0.0000 H   0  0  0  0  0  0  0  0  0  0  0  0
   -4.6304   -5.7286    0.0000 H   0  0  0  0  0  0  0  0  0  0  0  0
   -2.1087   -3.7584    0.0000 C   0  0  0  0  0  0  0  0  0  0  0  0
   -3.5923   -3.1592    0.0000 Cl  0  0  0  0  0  0  0  0  0  0  0  0
   -2.6356   -0.8564    0.0000 O   0  0  0  0  0  0  0  0  0  0  0  0
   -0.3326    1.5651    0.0000 C   0  0  0  0  0  0  0  0  0  0  0  0
   -1.7944    2.2158    0.0000 C   0  0  0  0  0  0  0  0  0  0  0  0
   -3.2560    2.8666    0.0000 H   0  0  0  0  0  0  0  0  0  0  0  0
   -1.9617    3.8071    0.0000 H   0  0  0  0  0  0  0  0  0  0  0  0
   -3.0888    1.2754    0.0000 H   0  0  0  0  0  0  0  0  0  0  0  0
    1.0529    2.3650    0.0000 N   0  0  0  0  0  0  0  0  0  0  0  0
    2.2420    1.2943    0.0000 N   0  0  0  0  0  0  0  0  0  0  0  0
    3.7254    1.8938    0.0000 C   0  0  0  0  0  0  0  0  0  0  0  0
    5.2090    2.4932    0.0000 H   0  0  0  0  0  0  0  0  0  0  0  0
    4.9863    0.9088    0.0000 H   0  0  0  0  0  0  0  0  0  0  0  0
    3.9482    3.4782    0.0000 H   0  0  0  0  0  0  0  0  0  0  0  0
    3.9912   -4.3243    0.0000 O   0  0  0  0  0  0  0  0  0  0  0  0
    7.1911   -4.3243    0.0000 C   0  0  0  0  0  0  0  0  0  0  0  0
    6.3912   -5.7098    0.0000 H   0  0  0  0  0  0  0  0  0  0  0  0
    8.7912   -4.3243    0.0000 C   0  0  0  0  0  0  0  0  0  0  0  0
    9.5914   -5.7098    0.0000 H   0  0  0  0  0  0  0  0  0  0  0  0
  1  2  1  0  0  0  0
  1  3  1  0  0  0  0
  1  4  1  0  0  0  0
  1  5  1  0  0  0  0
  5  6  1  0  0  0  0
  6  7  1  0  0  0  0
  6  8  2  0  0  0  0
  8  9  1  0  0  0  0
  8 10  1  0  0  0  0
 10 11  1  0  0  0  0
 11 12  1  0  0  0  0
 12 13  1  0  0  0  0
 12 14  1  0  0  0  0
 12 15  1  0  0  0  0
 15 16  1  0  0  0  0
 16 17  2  0  0  0  0
 17 18  1  0  0  0  0
 18 19  1  0  0  0  0
 19 20  1  0  0  0  0
 20 21  1  0  0  0  0
 20 22  2  0  0  0  0
 22 23  1  0  0  0  0
 22 24  1  0  0  0  0
 24 25  1  0  0  0  0
 24 26  2  0  0  0  0
 26 27  1  0  0  0  0
 27 28  1  0  0  0  0
 27 29  1  0  0  0  0
 27 30  1  0  0  0  0
 26 31  1  0  0  0  0
 31 19  2  0  0  0  0
 31 32  1  0  0  0  0
 18 33  2  0  0  0  0
 17 34  1  0  0  0  0
 34 35  1  0  0  0  0
 35 36  1  0  0  0  0
 35 37  1  0  0  0  0
 35 38  1  0  0  0  0
 34 39  2  0  0  0  0
 39 40  1  0  0  0  0
 40 16  1  0  0  0  0
 40 41  1  0  0  0  0
 41 42  1  0  0  0  0
 41 43  1  0  0  0  0
 41 44  1  0  0  0  0
 11 45  2  0  0  0  0
 10 46  2  0  0  0  0
 46 47  1  0  0  0  0
 46 48  1  0  0  0  0
 48  5  2  0  0  0  0
 48 49  1  0  0  0  0
M  END
> <ChemID>
102902

> <source_casrn>
82692-44-2

> <CAS>
82692-44-2

> <SMILES>
Cc1ccc(cc1)C(=O)COc1c(C(=O)c2ccc(Cl)c(C)c2Cl)c(C)[n][n]1C

> <NAME>
Benzofenap

> <preferred_name>
Benzofenap

> <iupac>
2-{[4-(2,4-dichloro-3-methylbenzoyl)-1,3-dimethyl-1H-pyrazol-5-yl]oxy}-1-(4-methylphenyl)ethanone

> <MPID>
27298

> <dsstox_substance_id>
DTXSID5058193

> <Canonical_QSARr>
Cc1ccc(cc1)C(=O)COc1c(C(=O)c2ccc(Cl)c(C)c2Cl)c(C)[n][n]1C

> <InChI_Code_QSARr>
InChI=1S/C22H20Cl2N2O3/c1-12-5-7-15(8-6-12)18(27)11-29-22-19(14(3)25-26(22)4)21(28)16-9-10-17(23)13(2)20(16)24/h5-10H,11H2,1-4H3

> <InChI Key_QSARr>
JDWQITFHZOBBFE-UHFFFAOYSA-N

> <Salt_Solvent>
?

> <LogVP>
-7.0132

$$$$
102906
  -INDIGO-08031723152D

 39 41  0  0  0  0  0  0  0  0999 V2000
    4.0000   -4.1569    0.0000 N   0  0  0  0  0  0  0  0  0  0  0  0
    4.8001   -5.5425    0.0000 C   0  0  0  0  0  0  0  0  0  0  0  0
    4.0000   -6.9282    0.0000 H   0  0  0  0  0  0  0  0  0  0  0  0
    6.3999   -5.5425    0.0000 C   0  0  0  0  0  0  0  0  0  0  0  0
    7.2000   -6.9282    0.0000 H   0  0  0  0  0  0  0  0  0  0  0  0
    7.2000   -4.1569    0.0000 C   0  0  0  0  0  0  0  0  0  0  0  0
    8.7999   -4.1569    0.0000 H   0  0  0  0  0  0  0  0  0  0  0  0
    6.3999   -2.7712    0.0000 C   0  0  0  0  0  0  0  0  0  0  0  0
    7.2000   -1.3857    0.0000 C   0  0  0  0  0  0  0  0  0  0  0  0
    6.3999   -0.0001    0.0000 O   0  0  0  0  0  0  0  0  0  0  0  0
    8.8001   -1.3856    0.0000 N   0  0  0  0  0  0  0  0  0  0  0  0
    9.5999   -2.7712    0.0000 H   0  0  0  0  0  0  0  0  0  0  0  0
    9.5999   -0.0001    0.0000 C   0  0  0  0  0  0  0  0  0  0  0  0
   11.2001   -0.0001    0.0000 C   0  0  0  0  0  0  0  0  0  0  0  0
   12.0001   -1.3856    0.0000 H   0  0  0  0  0  0  0  0  0  0  0  0
   12.0001    1.3856    0.0000 C   0  0  0  0  0  0  0  0  0  0  0  0
   13.6000    1.3856    0.0000 H   0  0  0  0  0  0  0  0  0  0  0  0
   11.2001    2.7713    0.0000 C   0  0  0  0  0  0  0  0  0  0  0  0
   12.0001    4.1569    0.0000 F   0  0  0  0  0  0  0  0  0  0  0  0
    9.5999    2.7713    0.0000 C   0  0  0  0  0  0  0  0  0  0  0  0
    8.8001    4.1569    0.0000 H   0  0  0  0  0  0  0  0  0  0  0  0
    8.8001    1.3856    0.0000 C   0  0  0  0  0  0  0  0  0  0  0  0
    7.2000    1.3856    0.0000 F   0  0  0  0  0  0  0  0  0  0  0  0
    4.8001   -2.7712    0.0000 C   0  0  0  0  0  0  0  0  0  0  0  0
    4.0000   -1.3856    0.0000 O   0  0  0  0  0  0  0  0  0  0  0  0
    2.4001   -1.3856    0.0000 C   0  0  0  0  0  0  0  0  0  0  0  0
    1.6001   -0.0001    0.0000 C   0  0  0  0  0  0  0  0  0  0  0  0
    2.4001    1.3856    0.0000 H   0  0  0  0  0  0  0  0  0  0  0  0
   -0.0001   -0.0001    0.0000 C   0  0  0  0  0  0  0  0  0  0  0  0
   -0.7999    1.3856    0.0000 C   0  0  0  0  0  0  0  0  0  0  0  0
   -1.5999    2.7713    0.0000 F   0  0  0  0  0  0  0  0  0  0  0  0
   -2.4000    1.3856    0.0000 F   0  0  0  0  0  0  0  0  0  0  0  0
   -0.0001    2.7713    0.0000 F   0  0  0  0  0  0  0  0  0  0  0  0
   -0.7999   -1.3856    0.0000 C   0  0  0  0  0  0  0  0  0  0  0  0
   -2.4000   -1.3856    0.0000 H   0  0  0  0  0  0  0  0  0  0  0  0
   -0.0001   -2.7712    0.0000 C   0  0  0  0  0  0  0  0  0  0  0  0
   -0.8001   -4.1569    0.0000 H   0  0  0  0  0  0  0  0  0  0  0  0
    1.6001   -2.7712    0.0000 C   0  0  0  0  0  0  0  0  0  0  0  0
    2.4001   -4.1569    0.0000 H   0  0  0  0  0  0  0  0  0  0  0  0
  1  2  1  0  0  0  0
  2  3  1  0  0  0  0
  2  4  2  0  0  0  0
  4  5  1  0  0  0  0
  4  6  1  0  0  0  0
  6  7  1  0  0  0  0
  6  8  2  0  0  0  0
  8  9  1  0  0  0  0
  9 10  2  0  0  0  0
  9 11  1  0  0  0  0
 11 12  1  0  0  0  0
 11 13  1  0  0  0  0
 13 14  1  0  0  0  0
 14 15  1  0  0  0  0
 14 16  2  0  0  0  0
 16 17  1  0  0  0  0
 16 18  1  0  0  0  0
 18 19  1  0  0  0  0
 18 20  2  0  0  0  0
 20 21  1  0  0  0  0
 20 22  1  0  0  0  0
 22 13  2  0  0  0  0
 22 23  1  0  0  0  0
  8 24  1  0  0  0  0
 24  1  2  0  0  0  0
 24 25  1  0  0  0  0
 25 26  1  0  0  0  0
 26 27  1  0  0  0  0
 27 28  1  0  0  0  0
 27 29  2  0  0  0  0
 29 30  1  0  0  0  0
 30 31  1  0  0  0  0
 30 32  1  0  0  0  0
 30 33  1  0  0  0  0
 29 34  1  0  0  0  0
 34 35  1  0  0  0  0
 34 36  2  0  0  0  0
 36 37  1  0  0  0  0
 36 38  1  0  0  0  0
 38 26  2  0  0  0  0
 38 39  1  0  0  0  0
M  END
> <ChemID>
102906

> <source_casrn>
83164-33-4

> <CAS>
83164-33-4

> <SMILES>
O=C(Nc1ccc(F)cc1F)c1ccc[n]c1Oc1cc(ccc1)C(F)(F)F

> <NAME>
DIFLUFENICAN

> <preferred_name>
Diflufenican

> <iupac>
N-(2,4-difluorophenyl)-2-[3-(trifluoromethyl)phenoxy]pyridine-3-carboxamide

> <MPID>
27302

> <dsstox_substance_id>
DTXSID4041494

> <Canonical_QSARr>
O=C(Nc1ccc(F)cc1F)c1ccc[n]c1Oc1cc(ccc1)C(F)(F)F

> <InChI_Code_QSARr>
InChI=1S/C19H11F5N2O2/c20-12-6-7-16(15(21)10-12)26-17(27)14-5-2-8-25-18(14)28-13-4-1-3-11(9-13)19(22,23)24/h1-10H,(H,26,27)

> <InChI Key_QSARr>
WYEHFWKAOXOVJD-UHFFFAOYSA-N

> <Salt_Solvent>
?

> <LogVP>
-7.4976

$$$$
102913
  -INDIGO-08031723152D

 37 39  0  0  0  0  0  0  0  0999 V2000
   -2.0257    2.4142    0.0000 N   0  0  0  0  0  0  0  0  0  0  0  0
   -0.8000    1.3856    0.0000 C   0  0  0  0  0  0  0  0  0  0  0  0
    0.4694    2.3597    0.0000 H   0  0  0  0  0  0  0  0  0  0  0  0
   -0.5912    2.9719    0.0000 H   0  0  0  0  0  0  0  0  0  0  0  0
    0.0000   -0.0000    0.0000 Si  0  0  0  0  0  0  0  0  0  0  0  0
    1.3856    0.8000    0.0000 C   0  0  0  0  0  0  0  0  0  0  0  0
    1.6635    2.3757    0.0000 C   0  0  0  0  0  0  0  0  0  0  0  0
    0.4378    3.4041    0.0000 H   0  0  0  0  0  0  0  0  0  0  0  0
    3.1670    2.9229    0.0000 C   0  0  0  0  0  0  0  0  0  0  0  0
    3.4449    4.4986    0.0000 H   0  0  0  0  0  0  0  0  0  0  0  0
    4.3927    1.8945    0.0000 C   0  0  0  0  0  0  0  0  0  0  0  0
    5.8962    2.4418    0.0000 F   0  0  0  0  0  0  0  0  0  0  0  0
    4.1148    0.3187    0.0000 C   0  0  0  0  0  0  0  0  0  0  0  0
    5.3406   -0.7097    0.0000 H   0  0  0  0  0  0  0  0  0  0  0  0
    2.6114   -0.2284    0.0000 C   0  0  0  0  0  0  0  0  0  0  0  0
    2.8891   -1.8042    0.0000 H   0  0  0  0  0  0  0  0  0  0  0  0
   -1.2257   -1.0284    0.0000 C   0  0  0  0  0  0  0  0  0  0  0  0
   -1.2257   -2.6284    0.0000 C   0  0  0  0  0  0  0  0  0  0  0  0
   -0.1973   -3.8542    0.0000 H   0  0  0  0  0  0  0  0  0  0  0  0
   -2.6113   -3.4285    0.0000 C   0  0  0  0  0  0  0  0  0  0  0  0
   -2.6113   -5.0285    0.0000 H   0  0  0  0  0  0  0  0  0  0  0  0
   -3.9969   -2.6284    0.0000 C   0  0  0  0  0  0  0  0  0  0  0  0
   -5.3825   -3.4285    0.0000 F   0  0  0  0  0  0  0  0  0  0  0  0
   -3.9969   -1.0284    0.0000 C   0  0  0  0  0  0  0  0  0  0  0  0
   -5.3825   -0.2284    0.0000 H   0  0  0  0  0  0  0  0  0  0  0  0
   -2.6113   -0.2284    0.0000 C   0  0  0  0  0  0  0  0  0  0  0  0
   -2.6113    1.3716    0.0000 H   0  0  0  0  0  0  0  0  0  0  0  0
    1.0285   -1.2256    0.0000 C   0  0  0  0  0  0  0  0  0  0  0  0
    2.0569   -2.4513    0.0000 H   0  0  0  0  0  0  0  0  0  0  0  0
    0.4812   -2.7292    0.0000 H   0  0  0  0  0  0  0  0  0  0  0  0
   -0.4750   -1.7729    0.0000 H   0  0  0  0  0  0  0  0  0  0  0  0
   -3.5781    2.0271    0.0000 N   0  0  0  0  0  0  0  0  0  0  0  0
   -4.4261    3.3839    0.0000 C   0  0  0  0  0  0  0  0  0  0  0  0
   -6.0221    3.4955    0.0000 H   0  0  0  0  0  0  0  0  0  0  0  0
   -3.3975    4.6096    0.0000 N   0  0  0  0  0  0  0  0  0  0  0  0
   -1.9141    4.0102    0.0000 C   0  0  0  0  0  0  0  0  0  0  0  0
   -0.5572    4.8581    0.0000 H   0  0  0  0  0  0  0  0  0  0  0  0
  1  2  1  0  0  0  0
  2  3  1  0  0  0  0
  2  4  1  0  0  0  0
  2  5  1  0  0  0  0
  5  6  1  0  0  0  0
  6  7  1  0  0  0  0
  7  8  1  0  0  0  0
  7  9  2  0  0  0  0
  9 10  1  0  0  0  0
  9 11  1  0  0  0  0
 11 12  1  0  0  0  0
 11 13  2  0  0  0  0
 13 14  1  0  0  0  0
 13 15  1  0  0  0  0
 15  6  2  0  0  0  0
 15 16  1  0  0  0  0
  5 17  1  0  0  0  0
 17 18  1  0  0  0  0
 18 19  1  0  0  0  0
 18 20  2  0  0  0  0
 20 21  1  0  0  0  0
 20 22  1  0  0  0  0
 22 23  1  0  0  0  0
 22 24  2  0  0  0  0
 24 25  1  0  0  0  0
 24 26  1  0  0  0  0
 26 17  2  0  0  0  0
 26 27  1  0  0  0  0
  5 28  1  0  0  0  0
 28 29  1  0  0  0  0
 28 30  1  0  0  0  0
 28 31  1  0  0  0  0
  1 32  1  0  0  0  0
 32 33  2  0  0  0  0
 33 34  1  0  0  0  0
 33 35  1  0  0  0  0
 35 36  2  0  0  0  0
 36  1  1  0  0  0  0
 36 37  1  0  0  0  0
M  END
> <ChemID>
102913

> <source_casrn>
85509-19-9

> <CAS>
85509-19-9

> <SMILES>
C[Si](C[n]1c[n]c[n]1)(c1ccc(F)cc1)c1ccc(F)cc1

> <NAME>
Flusilazole

> <preferred_name>
Flusilazole

> <iupac>
1-{[bis(4-fluorophenyl)(methyl)silyl]methyl}-1H-1,2,4-triazole

> <MPID>
27308

> <dsstox_substance_id>
DTXSID3024235

> <Canonical_QSARr>
C[Si](C[n]1c[n]c[n]1)(c1ccc(F)cc1)c1ccc(F)cc1

> <InChI_Code_QSARr>
InChI=1S/C16H15F2N3Si/c1-22(12-21-11-19-10-20-21,15-6-2-13(17)3-7-15)16-8-4-14(18)5-9-16/h2-11H,12H2,1H3

> <InChI Key_QSARr>
FQKUGOMFVDPBIZ-UHFFFAOYSA-N

> <Salt_Solvent>
?

> <LogVP>
-6.5331

$$$$
102917
  -INDIGO-08031723152D

 41 41  0  0  0  0  0  0  0  0999 V2000
    3.1670    2.9229    0.0000 C   0  0  0  0  0  0  0  0  0  0  0  0
    4.6705    3.4702    0.0000 H   0  0  0  0  0  0  0  0  0  0  0  0
    3.4448    4.4986    0.0000 H   0  0  0  0  0  0  0  0  0  0  0  0
    4.3927    1.8944    0.0000 H   0  0  0  0  0  0  0  0  0  0  0  0
    1.6635    2.3757    0.0000 C   0  0  0  0  0  0  0  0  0  0  0  0
    1.1824    3.9016    0.0000 H   0  0  0  0  0  0  0  0  0  0  0  0
    0.1015    2.0294    0.0000 H   0  0  0  0  0  0  0  0  0  0  0  0
    1.3857    0.8000    0.0000 C   0  0  0  0  0  0  0  0  0  0  0  0
    2.7713    0.0000    0.0000 C   0  0  0  0  0  0  0  0  0  0  0  0
    4.1570    0.8000    0.0000 H   0  0  0  0  0  0  0  0  0  0  0  0
    2.7713   -1.6000    0.0000 C   0  0  0  0  0  0  0  0  0  0  0  0
    4.1570   -2.4000    0.0000 H   0  0  0  0  0  0  0  0  0  0  0  0
    1.3857   -2.4000    0.0000 C   0  0  0  0  0  0  0  0  0  0  0  0
    1.3857   -4.0000    0.0000 H   0  0  0  0  0  0  0  0  0  0  0  0
    0.0000   -1.6000    0.0000 C   0  0  0  0  0  0  0  0  0  0  0  0
   -1.2257   -2.6285    0.0000 C   0  0  0  0  0  0  0  0  0  0  0  0
   -2.4514   -3.6569    0.0000 H   0  0  0  0  0  0  0  0  0  0  0  0
   -2.7292   -2.0813    0.0000 H   0  0  0  0  0  0  0  0  0  0  0  0
   -0.9479   -4.2042    0.0000 H   0  0  0  0  0  0  0  0  0  0  0  0
    0.0000    0.0000    0.0000 C   0  0  0  0  0  0  0  0  0  0  0  0
   -1.2257    1.0285    0.0000 N   0  0  0  0  0  0  0  0  0  0  0  0
   -2.7292    0.4813    0.0000 C   0  0  0  0  0  0  0  0  0  0  0  0
   -3.5889   -0.8683    0.0000 H   0  0  0  0  0  0  0  0  0  0  0  0
   -2.3828   -1.0809    0.0000 H   0  0  0  0  0  0  0  0  0  0  0  0
   -3.9549    1.5098    0.0000 O   0  0  0  0  0  0  0  0  0  0  0  0
   -5.4584    0.9624    0.0000 C   0  0  0  0  0  0  0  0  0  0  0  0
   -4.9112   -0.5411    0.0000 H   0  0  0  0  0  0  0  0  0  0  0  0
   -6.9619    0.4152    0.0000 C   0  0  0  0  0  0  0  0  0  0  0  0
   -8.4654   -0.1320    0.0000 H   0  0  0  0  0  0  0  0  0  0  0  0
   -8.1876    1.4437    0.0000 H   0  0  0  0  0  0  0  0  0  0  0  0
   -7.2397   -1.1605    0.0000 H   0  0  0  0  0  0  0  0  0  0  0  0
   -6.0056    2.4659    0.0000 C   0  0  0  0  0  0  0  0  0  0  0  0
   -6.5528    3.9695    0.0000 H   0  0  0  0  0  0  0  0  0  0  0  0
   -7.5812    2.7439    0.0000 H   0  0  0  0  0  0  0  0  0  0  0  0
   -4.9771    3.6916    0.0000 H   0  0  0  0  0  0  0  0  0  0  0  0
   -0.9479    2.6042    0.0000 C   0  0  0  0  0  0  0  0  0  0  0  0
   -1.9763    3.8298    0.0000 C   0  0  0  0  0  0  0  0  0  0  0  0
   -3.0048    5.0555    0.0000 H   0  0  0  0  0  0  0  0  0  0  0  0
   -1.4291    5.3333    0.0000 H   0  0  0  0  0  0  0  0  0  0  0  0
   -3.5520    3.5520    0.0000 Cl  0  0  0  0  0  0  0  0  0  0  0  0
    0.6278    2.8820    0.0000 O   0  0  0  0  0  0  0  0  0  0  0  0
  1  2  1  0  0  0  0
  1  3  1  0  0  0  0
  1  4  1  0  0  0  0
  1  5  1  0  0  0  0
  5  6  1  0  0  0  0
  5  7  1  0  0  0  0
  5  8  1  0  0  0  0
  8  9  1  0  0  0  0
  9 10  1  0  0  0  0
  9 11  2  0  0  0  0
 11 12  1  0  0  0  0
 11 13  1  0  0  0  0
 13 14  1  0  0  0  0
 13 15  2  0  0  0  0
 15 16  1  0  0  0  0
 16 17  1  0  0  0  0
 16 18  1  0  0  0  0
 16 19  1  0  0  0  0
 15 20  1  0  0  0  0
 20  8  2  0  0  0  0
 20 21  1  0  0  0  0
 21 22  1  0  0  0  0
 22 23  1  0  0  0  0
 22 24  1  0  0  0  0
 22 25  1  0  0  0  0
 25 26  1  0  0  0  0
 26 27  1  0  0  0  0
 26 28  1  0  0  0  0
 28 29  1  0  0  0  0
 28 30  1  0  0  0  0
 28 31  1  0  0  0  0
 26 32  1  0  0  0  0
 32 33  1  0  0  0  0
 32 34  1  0  0  0  0
 32 35  1  0  0  0  0
 21 36  1  0  0  0  0
 36 37  1  0  0  0  0
 37 38  1  0  0  0  0
 37 39  1  0  0  0  0
 37 40  1  0  0  0  0
 36 41  2  0  0  0  0
M  END
> <ChemID>
102917

> <source_casrn>
86763-47-5

> <CAS>
86763-47-5

> <SMILES>
Cc1cccc(CC)c1N(COC(C)C)C(=O)CCl

> <NAME>
Propisochlor

> <preferred_name>
Propisochlor

> <iupac>
2-chloro-N-(2-ethyl-6-methylphenyl)-N-(isopropoxymethyl)acetamide

> <MPID>
27312

> <dsstox_substance_id>
DTXSID2058205

> <Canonical_QSARr>
Cc1cccc(CC)c1N(COC(C)C)C(=O)CCl

> <InChI_Code_QSARr>
InChI=1S/C15H22ClNO2/c1-5-13-8-6-7-12(4)15(13)17(14(18)9-16)10-19-11(2)3/h6-8,11H,5,9-10H2,1-4H3

> <InChI Key_QSARr>
KZNDFYDURHAESM-UHFFFAOYSA-N

> <Salt_Solvent>
?

> <LogVP>
-4.5229

$$$$
102921
  -INDIGO-08031723152D

 35 35  0  0  0  0  0  0  0  0999 V2000
    1.1272    2.5317    0.0000 C   0  0  0  0  0  0  0  0  0  0  0  0
    2.4216    3.4722    0.0000 O   0  0  0  0  0  0  0  0  0  0  0  0
    1.2944    0.9404    0.0000 N   0  0  0  0  0  0  0  0  0  0  0  0
    2.7561    0.2896    0.0000 C   0  0  0  0  0  0  0  0  0  0  0  0
    3.0887   -1.2753    0.0000 C   0  0  0  0  0  0  0  0  0  0  0  0
    2.0182   -2.4644    0.0000 C   0  0  0  0  0  0  0  0  0  0  0  0
    0.9476   -3.6534    0.0000 H   0  0  0  0  0  0  0  0  0  0  0  0
    2.5126   -3.9861    0.0000 H   0  0  0  0  0  0  0  0  0  0  0  0
    0.4531   -2.1317    0.0000 H   0  0  0  0  0  0  0  0  0  0  0  0
    4.6801   -1.4426    0.0000 S   0  0  0  0  0  0  0  0  0  0  0  0
    5.3308    0.0191    0.0000 C   0  0  0  0  0  0  0  0  0  0  0  0
    6.8958    0.3518    0.0000 H   0  0  0  0  0  0  0  0  0  0  0  0
    4.1417    1.0897    0.0000 C   0  0  0  0  0  0  0  0  0  0  0  0
    4.5828    2.6277    0.0000 C   0  0  0  0  0  0  0  0  0  0  0  0
    5.0237    4.1657    0.0000 H   0  0  0  0  0  0  0  0  0  0  0  0
    3.4713    3.7787    0.0000 H   0  0  0  0  0  0  0  0  0  0  0  0
    6.1351    3.0148    0.0000 H   0  0  0  0  0  0  0  0  0  0  0  0
    0.0001   -0.0000    0.0000 C   0  0  0  0  0  0  0  0  0  0  0  0
    0.9404   -1.2945    0.0000 H   0  0  0  0  0  0  0  0  0  0  0  0
   -1.2944   -0.9405    0.0000 C   0  0  0  0  0  0  0  0  0  0  0  0
   -0.5309   -2.3465    0.0000 H   0  0  0  0  0  0  0  0  0  0  0  0
   -1.7488   -2.4746    0.0000 H   0  0  0  0  0  0  0  0  0  0  0  0
   -2.8468   -0.5534    0.0000 O   0  0  0  0  0  0  0  0  0  0  0  0
   -3.9583   -1.7043    0.0000 C   0  0  0  0  0  0  0  0  0  0  0  0
   -5.0697   -2.8553    0.0000 H   0  0  0  0  0  0  0  0  0  0  0  0
   -5.5108   -1.3173    0.0000 H   0  0  0  0  0  0  0  0  0  0  0  0
   -3.5174   -3.2424    0.0000 H   0  0  0  0  0  0  0  0  0  0  0  0
   -0.9404    1.2944    0.0000 C   0  0  0  0  0  0  0  0  0  0  0  0
   -1.8809    2.5888    0.0000 H   0  0  0  0  0  0  0  0  0  0  0  0
   -2.5316    1.1272    0.0000 H   0  0  0  0  0  0  0  0  0  0  0  0
   -1.8351   -0.0320    0.0000 H   0  0  0  0  0  0  0  0  0  0  0  0
   -0.3344    3.1824    0.0000 C   0  0  0  0  0  0  0  0  0  0  0  0
   -0.5018    4.7737    0.0000 H   0  0  0  0  0  0  0  0  0  0  0  0
   -1.7961    3.8332    0.0000 H   0  0  0  0  0  0  0  0  0  0  0  0
    0.9599    4.1229    0.0000 Cl  0  0  0  0  0  0  0  0  0  0  0  0
  1  2  2  0  0  0  0
  1  3  1  0  0  0  0
  3  4  1  0  0  0  0
  4  5  2  0  0  0  0
  5  6  1  0  0  0  0
  6  7  1  0  0  0  0
  6  8  1  0  0  0  0
  6  9  1  0  0  0  0
  5 10  1  0  0  0  0
 10 11  1  0  0  0  0
 11 12  1  0  0  0  0
 11 13  2  0  0  0  0
 13  4  1  0  0  0  0
 13 14  1  0  0  0  0
 14 15  1  0  0  0  0
 14 16  1  0  0  0  0
 14 17  1  0  0  0  0
  3 18  1  0  0  0  0
 18 19  1  0  0  0  0
 18 20  1  0  0  0  0
 20 21  1  0  0  0  0
 20 22  1  0  0  0  0
 20 23  1  0  0  0  0
 23 24  1  0  0  0  0
 24 25  1  0  0  0  0
 24 26  1  0  0  0  0
 24 27  1  0  0  0  0
 18 28  1  0  0  0  0
 28 29  1  0  0  0  0
 28 30  1  0  0  0  0
 28 31  1  0  0  0  0
  1 32  1  0  0  0  0
 32 33  1  0  0  0  0
 32 34  1  0  0  0  0
 32 35  1  0  0  0  0
M  END
> <ChemID>
102921

> <source_casrn>
87674-68-8

> <CAS>
87674-68-8

> <SMILES>
COCC(C)N(C(=O)CCl)c1c(C)c[s]c1C

> <NAME>
DIMETHENAMID

> <preferred_name>
Dimethenamid

> <iupac>
C12H18ClNO2S

> <MPID>
27316

> <dsstox_substance_id>
DTXSID4032376

> <Canonical_QSARr>
COCC(C)N(C(=O)CCl)c1c(C)c[s]c1C

> <InChI_Code_QSARr>
InChI=1S/C12H18ClNO2S/c1-8-7-17-10(3)12(8)14(11(15)5-13)9(2)6-16-4/h7,9H,5-6H2,1-4H3

> <InChI Key_QSARr>
JLYFCTQDENRSOL-UHFFFAOYSA-N

> <Salt_Solvent>
?

> <LogVP>
-3.5607

$$$$
102925
  -INDIGO-08031723152D

 31 32  0  0  0  0  0  0  0  0999 V2000
   -5.4213    1.1523    0.0000 C   0  0  0  0  0  0  0  0  0  0  0  0
   -5.0888    2.7174    0.0000 C   0  0  0  0  0  0  0  0  0  0  0  0
   -4.7562    4.2824    0.0000 F   0  0  0  0  0  0  0  0  0  0  0  0
   -6.2779    3.7880    0.0000 F   0  0  0  0  0  0  0  0  0  0  0  0
   -3.5671    3.2118    0.0000 F   0  0  0  0  0  0  0  0  0  0  0  0
   -4.2324    0.0818    0.0000 N   0  0  0  0  0  0  0  0  0  0  0  0
   -2.7107    0.5762    0.0000 O   0  0  0  0  0  0  0  0  0  0  0  0
   -1.5216   -0.4944    0.0000 C   0  0  0  0  0  0  0  0  0  0  0  0
   -1.2301   -2.0676    0.0000 H   0  0  0  0  0  0  0  0  0  0  0  0
   -2.4280   -1.8131    0.0000 H   0  0  0  0  0  0  0  0  0  0  0  0
   -0.0001    0.0000    0.0000 C   0  0  0  0  0  0  0  0  0  0  0  0
   -0.6509    1.4617    0.0000 H   0  0  0  0  0  0  0  0  0  0  0  0
    0.3327   -1.5651    0.0000 O   0  0  0  0  0  0  0  0  0  0  0  0
    1.9238   -1.7323    0.0000 C   0  0  0  0  0  0  0  0  0  0  0  0
    1.5912   -3.2973    0.0000 H   0  0  0  0  0  0  0  0  0  0  0  0
    3.4455   -2.2267    0.0000 H   0  0  0  0  0  0  0  0  0  0  0  0
    2.5748   -0.2706    0.0000 C   0  0  0  0  0  0  0  0  0  0  0  0
    3.9603   -1.0706    0.0000 H   0  0  0  0  0  0  0  0  0  0  0  0
    3.5152    1.0238    0.0000 H   0  0  0  0  0  0  0  0  0  0  0  0
    1.3856    0.8000    0.0000 O   0  0  0  0  0  0  0  0  0  0  0  0
   -6.9431    0.6579    0.0000 C   0  0  0  0  0  0  0  0  0  0  0  0
   -8.1322    1.7286    0.0000 C   0  0  0  0  0  0  0  0  0  0  0  0
   -7.7996    3.2935    0.0000 H   0  0  0  0  0  0  0  0  0  0  0  0
   -9.6539    1.2341    0.0000 C   0  0  0  0  0  0  0  0  0  0  0  0
  -10.8428    2.3047    0.0000 H   0  0  0  0  0  0  0  0  0  0  0  0
   -9.9865   -0.3309    0.0000 C   0  0  0  0  0  0  0  0  0  0  0  0
  -11.5082   -0.8253    0.0000 Cl  0  0  0  0  0  0  0  0  0  0  0  0
   -8.7976   -1.4015    0.0000 C   0  0  0  0  0  0  0  0  0  0  0  0
   -9.1302   -2.9665    0.0000 H   0  0  0  0  0  0  0  0  0  0  0  0
   -7.2759   -0.9071    0.0000 C   0  0  0  0  0  0  0  0  0  0  0  0
   -6.0867   -1.9778    0.0000 H   0  0  0  0  0  0  0  0  0  0  0  0
  1  2  1  0  0  0  0
  2  3  1  0  0  0  0
  2  4  1  0  0  0  0
  2  5  1  0  0  0  0
  1  6  2  0  0  0  0
  6  7  1  0  0  0  0
  7  8  1  0  0  0  0
  8  9  1  0  0  0  0
  8 10  1  0  0  0  0
  8 11  1  0  0  0  0
 11 12  1  0  0  0  0
 11 13  1  0  0  0  0
 13 14  1  0  0  0  0
 14 15  1  0  0  0  0
 14 16  1  0  0  0  0
 14 17  1  0  0  0  0
 17 18  1  0  0  0  0
 17 19  1  0  0  0  0
 17 20  1  0  0  0  0
 20 11  1  0  0  0  0
  1 21  1  0  0  0  0
 21 22  1  0  0  0  0
 22 23  1  0  0  0  0
 22 24  2  0  0  0  0
 24 25  1  0  0  0  0
 24 26  1  0  0  0  0
 26 27  1  0  0  0  0
 26 28  2  0  0  0  0
 28 29  1  0  0  0  0
 28 30  1  0  0  0  0
 30 21  2  0  0  0  0
 30 31  1  0  0  0  0
M  END
> <ChemID>
102925

> <source_casrn>
88485-37-4

> <CAS>
88485-37-4

> <SMILES>
FC(F)(F)C(=NOCC1OCCO1)c1ccc(Cl)cc1

> <NAME>
FLUXOFENIM

> <preferred_name>
Fluxofenim

> <iupac>
1-(4-chlorophenyl)-N-(1,3-dioxolan-2-ylmethoxy)-2,2,2-trifluoroethanimine

> <MPID>
27320

> <dsstox_substance_id>
DTXSID5044998

> <Canonical_QSARr>
FC(F)(F)C(=NOCC1OCCO1)c1ccc(Cl)cc1

> <InChI_Code_QSARr>
InChI=1S/C12H11ClF3NO3/c13-9-3-1-8(2-4-9)11(12(14,15)16)17-20-7-10-18-5-6-19-10/h1-4,10H,5-7H2/b17-11-

> <InChI Key_QSARr>
UKSLKNUCVPZQCQ-BOPFTXTBSA-N

> <Salt_Solvent>
?

> <LogVP>
-3.5452

$$$$
102933
  -INDIGO-08031723152D

 32 33  0  0  0  0  0  0  0  0999 V2000
    1.3857    0.8001    0.0000 C   0  0  0  0  0  0  0  0  0  0  0  0
    1.9979    2.2782    0.0000 H   0  0  0  0  0  0  0  0  0  0  0  0
    0.7733    2.2782    0.0000 H   0  0  0  0  0  0  0  0  0  0  0  0
    0.0001    0.0000    0.0000 C   0  0  0  0  0  0  0  0  0  0  0  0
   -0.6123   -1.4783    0.0000 H   0  0  0  0  0  0  0  0  0  0  0  0
    0.6123   -1.4783    0.0000 H   0  0  0  0  0  0  0  0  0  0  0  0
   -1.3857    0.8001    0.0000 O   0  0  0  0  0  0  0  0  0  0  0  0
   -2.7713    0.0000    0.0000 C   0  0  0  0  0  0  0  0  0  0  0  0
   -2.7713   -1.6000    0.0000 C   0  0  0  0  0  0  0  0  0  0  0  0
   -1.3857   -2.4000    0.0000 H   0  0  0  0  0  0  0  0  0  0  0  0
   -4.1569   -2.4000    0.0000 C   0  0  0  0  0  0  0  0  0  0  0  0
   -4.1569   -4.0000    0.0000 H   0  0  0  0  0  0  0  0  0  0  0  0
   -5.5425   -1.6000    0.0000 C   0  0  0  0  0  0  0  0  0  0  0  0
   -6.9281   -2.4000    0.0000 N   0  0  0  0  0  0  0  0  0  0  0  0
   -8.3137   -1.6000    0.0000 N   0  0  0  0  0  0  0  0  0  0  0  0
   -9.6996   -2.4000    0.0000 C   0  0  0  0  0  0  0  0  0  0  0  0
   -9.6996   -4.0000    0.0000 C   0  0  0  0  0  0  0  0  0  0  0  0
   -8.3137   -4.8001    0.0000 H   0  0  0  0  0  0  0  0  0  0  0  0
  -11.0852   -4.8001    0.0000 C   0  0  0  0  0  0  0  0  0  0  0  0
  -11.0852   -6.4000    0.0000 H   0  0  0  0  0  0  0  0  0  0  0  0
  -12.4708   -4.0000    0.0000 C   0  0  0  0  0  0  0  0  0  0  0  0
  -13.8564   -4.8001    0.0000 H   0  0  0  0  0  0  0  0  0  0  0  0
  -12.4708   -2.4000    0.0000 C   0  0  0  0  0  0  0  0  0  0  0  0
  -13.8564   -1.6000    0.0000 H   0  0  0  0  0  0  0  0  0  0  0  0
  -11.0852   -1.6000    0.0000 C   0  0  0  0  0  0  0  0  0  0  0  0
  -11.0852    0.0000    0.0000 H   0  0  0  0  0  0  0  0  0  0  0  0
   -5.5425    0.0000    0.0000 C   0  0  0  0  0  0  0  0  0  0  0  0
   -6.9281    0.8001    0.0000 H   0  0  0  0  0  0  0  0  0  0  0  0
   -4.1569    0.8001    0.0000 C   0  0  0  0  0  0  0  0  0  0  0  0
   -4.1569    2.4000    0.0000 H   0  0  0  0  0  0  0  0  0  0  0  0
    2.7713    0.0000    0.0000 O   0  0  0  0  0  0  0  0  0  0  0  0
    4.1569    0.8001    0.0000 H   0  0  0  0  0  0  0  0  0  0  0  0
  1  2  1  0  0  0  0
  1  3  1  0  0  0  0
  1  4  1  0  0  0  0
  4  5  1  0  0  0  0
  4  6  1  0  0  0  0
  4  7  1  0  0  0  0
  7  8  1  0  0  0  0
  8  9  1  0  0  0  0
  9 10  1  0  0  0  0
  9 11  2  0  0  0  0
 11 12  1  0  0  0  0
 11 13  1  0  0  0  0
 13 14  1  0  0  0  0
 14 15  2  0  0  0  0
 15 16  1  0  0  0  0
 16 17  1  0  0  0  0
 17 18  1  0  0  0  0
 17 19  2  0  0  0  0
 19 20  1  0  0  0  0
 19 21  1  0  0  0  0
 21 22  1  0  0  0  0
 21 23  2  0  0  0  0
 23 24  1  0  0  0  0
 23 25  1  0  0  0  0
 25 16  2  0  0  0  0
 25 26  1  0  0  0  0
 13 27  2  0  0  0  0
 27 28  1  0  0  0  0
 27 29  1  0  0  0  0
 29  8  2  0  0  0  0
 29 30  1  0  0  0  0
  1 31  1  0  0  0  0
 31 32  1  0  0  0  0
M  END
> <ChemID>
102933

> <source_casrn>
92245-57-3

> <CAS>
NOCAS_871473

> <SMILES>
OCCOc1ccc(cc1)N=Nc1ccccc1

> <NAME>
2-(4-(PHENYLAZO)PHENOXY)ETHANOL

> <preferred_name>


> <iupac>


> <MPID>
27325

> <dsstox_substance_id>
DTXSID40871473

> <Canonical_QSARr>
OCCOc1ccc(cc1)N=Nc1ccccc1

> <InChI_Code_QSARr>
InChI=1S/C14H14N2O2/c17-10-11-18-14-8-6-13(7-9-14)16-15-12-4-2-1-3-5-12/h1-9,17H,10-11H2/b16-15+

> <InChI Key_QSARr>
WFNPQMPOEDMXFS-FOCLMDBBSA-N

> <Salt_Solvent>
?

> <LogVP>
-7.6749

$$$$
102938
  -INDIGO-08031723152D

 38 37  0  0  0  0  0  0  0  0999 V2000
    2.6285    1.2257    0.0000 P   0  0  0  0  0  0  0  0  0  0  0  0
    4.2041    0.9479    0.0000 S   0  0  0  0  0  0  0  0  0  0  0  0
    4.7514   -0.5557    0.0000 C   0  0  0  0  0  0  0  0  0  0  0  0
    3.2478   -1.1028    0.0000 H   0  0  0  0  0  0  0  0  0  0  0  0
    5.2986   -2.0592    0.0000 C   0  0  0  0  0  0  0  0  0  0  0  0
    3.8795   -2.7980    0.0000 H   0  0  0  0  0  0  0  0  0  0  0  0
    4.8174   -3.5851    0.0000 H   0  0  0  0  0  0  0  0  0  0  0  0
    6.8744   -2.3370    0.0000 C   0  0  0  0  0  0  0  0  0  0  0  0
    7.4216   -3.8406    0.0000 H   0  0  0  0  0  0  0  0  0  0  0  0
    8.4500   -2.6149    0.0000 H   0  0  0  0  0  0  0  0  0  0  0  0
    5.8458   -3.5628    0.0000 H   0  0  0  0  0  0  0  0  0  0  0  0
    6.2549   -0.0084    0.0000 C   0  0  0  0  0  0  0  0  0  0  0  0
    7.7584    0.5389    0.0000 H   0  0  0  0  0  0  0  0  0  0  0  0
    6.5328    1.5672    0.0000 H   0  0  0  0  0  0  0  0  0  0  0  0
    7.4805   -1.0370    0.0000 H   0  0  0  0  0  0  0  0  0  0  0  0
    1.5999    0.0001    0.0000 S   0  0  0  0  0  0  0  0  0  0  0  0
    0.0000    0.0001    0.0000 C   0  0  0  0  0  0  0  0  0  0  0  0
   -1.5999    0.0001    0.0000 H   0  0  0  0  0  0  0  0  0  0  0  0
    0.0000   -1.6001    0.0000 C   0  0  0  0  0  0  0  0  0  0  0  0
    1.5862   -1.8089    0.0000 H   0  0  0  0  0  0  0  0  0  0  0  0
    0.9739   -2.8694    0.0000 H   0  0  0  0  0  0  0  0  0  0  0  0
   -1.3857   -2.4000    0.0000 C   0  0  0  0  0  0  0  0  0  0  0  0
   -2.7713   -3.2000    0.0000 H   0  0  0  0  0  0  0  0  0  0  0  0
   -1.3857   -4.0000    0.0000 H   0  0  0  0  0  0  0  0  0  0  0  0
   -2.7713   -1.6001    0.0000 H   0  0  0  0  0  0  0  0  0  0  0  0
   -0.2779    1.5757    0.0000 C   0  0  0  0  0  0  0  0  0  0  0  0
   -0.5556    3.1514    0.0000 H   0  0  0  0  0  0  0  0  0  0  0  0
   -1.7814    2.1230    0.0000 H   0  0  0  0  0  0  0  0  0  0  0  0
    0.9479    2.6041    0.0000 H   0  0  0  0  0  0  0  0  0  0  0  0
    2.0813    2.7291    0.0000 O   0  0  0  0  0  0  0  0  0  0  0  0
    3.6569    2.4513    0.0000 O   0  0  0  0  0  0  0  0  0  0  0  0
    3.1096    3.9548    0.0000 C   0  0  0  0  0  0  0  0  0  0  0  0
    1.7602    4.8146    0.0000 H   0  0  0  0  0  0  0  0  0  0  0  0
    1.5475    3.6085    0.0000 H   0  0  0  0  0  0  0  0  0  0  0  0
    4.1382    5.1806    0.0000 C   0  0  0  0  0  0  0  0  0  0  0  0
    5.1666    6.4062    0.0000 H   0  0  0  0  0  0  0  0  0  0  0  0
    3.5910    6.6840    0.0000 H   0  0  0  0  0  0  0  0  0  0  0  0
    5.7138    4.9026    0.0000 H   0  0  0  0  0  0  0  0  0  0  0  0
  1  2  1  0  0  0  0
  2  3  1  0  0  0  0
  3  4  1  0  0  0  0
  3  5  1  0  0  0  0
  5  6  1  0  0  0  0
  5  7  1  0  0  0  0
  5  8  1  0  0  0  0
  8  9  1  0  0  0  0
  8 10  1  0  0  0  0
  8 11  1  0  0  0  0
  3 12  1  0  0  0  0
 12 13  1  0  0  0  0
 12 14  1  0  0  0  0
 12 15  1  0  0  0  0
  1 16  1  0  0  0  0
 16 17  1  0  0  0  0
 17 18  1  0  0  0  0
 17 19  1  0  0  0  0
 19 20  1  0  0  0  0
 19 21  1  0  0  0  0
 19 22  1  0  0  0  0
 22 23  1  0  0  0  0
 22 24  1  0  0  0  0
 22 25  1  0  0  0  0
 17 26  1  0  0  0  0
 26 27  1  0  0  0  0
 26 28  1  0  0  0  0
 26 29  1  0  0  0  0
  1 30  2  0  0  0  0
  1 31  1  0  0  0  0
 31 32  1  0  0  0  0
 32 33  1  0  0  0  0
 32 34  1  0  0  0  0
 32 35  1  0  0  0  0
 35 36  1  0  0  0  0
 35 37  1  0  0  0  0
 35 38  1  0  0  0  0
M  END
> <ChemID>
102938

> <source_casrn>
95465-99-9

> <CAS>
95465-99-9

> <SMILES>
CC(CC)SP(=O)(OCC)SC(C)CC

> <NAME>
CADUSAFOS

> <preferred_name>
Cadusafos

> <iupac>
S,S-dibutan-2-yl O-ethyl phosphorodithioate

> <MPID>
27330

> <dsstox_substance_id>
DTXSID7037505

> <Canonical_QSARr>
CC(CC)SP(=O)(OCC)SC(C)CC

> <InChI_Code_QSARr>
InChI=1S/C10H23O2PS2/c1-6-9(4)14-13(11,12-8-3)15-10(5)7-2/h9-10H,6-8H2,1-5H3

> <InChI Key_QSARr>
KXRPCFINVWWFHQ-UHFFFAOYSA-N

> <Salt_Solvent>
?

> <LogVP>
-3.0458

$$$$
102942
  -INDIGO-08031723152D

 39 40  0  0  0  0  0  0  0  0999 V2000
    1.9328    2.3035    0.0000 C   0  0  0  0  0  0  0  0  0  0  0  0
    2.9614    3.5291    0.0000 H   0  0  0  0  0  0  0  0  0  0  0  0
    3.5086    2.0257    0.0000 H   0  0  0  0  0  0  0  0  0  0  0  0
    1.3856    3.8071    0.0000 H   0  0  0  0  0  0  0  0  0  0  0  0
    1.3856    0.8000    0.0000 C   0  0  0  0  0  0  0  0  0  0  0  0
    2.7714   -0.0000    0.0000 C   0  0  0  0  0  0  0  0  0  0  0  0
    4.1569    0.8000    0.0000 H   0  0  0  0  0  0  0  0  0  0  0  0
    2.7714   -1.6000    0.0000 C   0  0  0  0  0  0  0  0  0  0  0  0
    4.1569   -2.4000    0.0000 H   0  0  0  0  0  0  0  0  0  0  0  0
    1.3856   -2.4000    0.0000 C   0  0  0  0  0  0  0  0  0  0  0  0
    1.3856   -4.0000    0.0000 H   0  0  0  0  0  0  0  0  0  0  0  0
    0.0000   -1.6000    0.0000 C   0  0  0  0  0  0  0  0  0  0  0  0
   -1.2257   -2.6284    0.0000 C   0  0  0  0  0  0  0  0  0  0  0  0
   -2.4514   -3.6570    0.0000 H   0  0  0  0  0  0  0  0  0  0  0  0
   -2.7291   -2.0812    0.0000 H   0  0  0  0  0  0  0  0  0  0  0  0
   -0.9478   -4.2042    0.0000 H   0  0  0  0  0  0  0  0  0  0  0  0
    0.0000   -0.0000    0.0000 C   0  0  0  0  0  0  0  0  0  0  0  0
   -1.2257    1.0285    0.0000 N   0  0  0  0  0  0  0  0  0  0  0  0
   -2.7291    0.4812    0.0000 C   0  0  0  0  0  0  0  0  0  0  0  0
   -3.5888   -0.8682    0.0000 H   0  0  0  0  0  0  0  0  0  0  0  0
   -2.3829   -1.0808    0.0000 H   0  0  0  0  0  0  0  0  0  0  0  0
   -3.9548    1.5097    0.0000 C   0  0  0  0  0  0  0  0  0  0  0  0
   -5.5072    1.1227    0.0000 C   0  0  0  0  0  0  0  0  0  0  0  0
   -6.1068   -0.3608    0.0000 O   0  0  0  0  0  0  0  0  0  0  0  0
   -7.6912   -0.5836    0.0000 C   0  0  0  0  0  0  0  0  0  0  0  0
   -9.2756   -0.8062    0.0000 H   0  0  0  0  0  0  0  0  0  0  0  0
   -8.2905   -2.0671    0.0000 H   0  0  0  0  0  0  0  0  0  0  0  0
   -8.6762    0.6773    0.0000 H   0  0  0  0  0  0  0  0  0  0  0  0
   -6.3552    2.4795    0.0000 C   0  0  0  0  0  0  0  0  0  0  0  0
   -7.9513    2.5911    0.0000 H   0  0  0  0  0  0  0  0  0  0  0  0
   -5.3267    3.7051    0.0000 C   0  0  0  0  0  0  0  0  0  0  0  0
   -5.7138    5.2576    0.0000 H   0  0  0  0  0  0  0  0  0  0  0  0
   -3.8433    3.1058    0.0000 S   0  0  0  0  0  0  0  0  0  0  0  0
   -0.9478    2.6041    0.0000 C   0  0  0  0  0  0  0  0  0  0  0  0
   -2.1735    3.6327    0.0000 C   0  0  0  0  0  0  0  0  0  0  0  0
   -1.8957    5.2083    0.0000 H   0  0  0  0  0  0  0  0  0  0  0  0
   -3.3992    4.6611    0.0000 H   0  0  0  0  0  0  0  0  0  0  0  0
   -0.6700    4.1799    0.0000 Cl  0  0  0  0  0  0  0  0  0  0  0  0
    0.6278    2.8820    0.0000 O   0  0  0  0  0  0  0  0  0  0  0  0
  1  2  1  0  0  0  0
  1  3  1  0  0  0  0
  1  4  1  0  0  0  0
  1  5  1  0  0  0  0
  5  6  1  0  0  0  0
  6  7  1  0  0  0  0
  6  8  2  0  0  0  0
  8  9  1  0  0  0  0
  8 10  1  0  0  0  0
 10 11  1  0  0  0  0
 10 12  2  0  0  0  0
 12 13  1  0  0  0  0
 13 14  1  0  0  0  0
 13 15  1  0  0  0  0
 13 16  1  0  0  0  0
 12 17  1  0  0  0  0
 17  5  2  0  0  0  0
 17 18  1  0  0  0  0
 18 19  1  0  0  0  0
 19 20  1  0  0  0  0
 19 21  1  0  0  0  0
 19 22  1  0  0  0  0
 22 23  2  0  0  0  0
 23 24  1  0  0  0  0
 24 25  1  0  0  0  0
 25 26  1  0  0  0  0
 25 27  1  0  0  0  0
 25 28  1  0  0  0  0
 23 29  1  0  0  0  0
 29 30  1  0  0  0  0
 29 31  2  0  0  0  0
 31 32  1  0  0  0  0
 31 33  1  0  0  0  0
 33 22  1  0  0  0  0
 18 34  1  0  0  0  0
 34 35  1  0  0  0  0
 35 36  1  0  0  0  0
 35 37  1  0  0  0  0
 35 38  1  0  0  0  0
 34 39  2  0  0  0  0
M  END
> <ChemID>
102942

> <source_casrn>
96491-05-3

> <CAS>
96491-05-3

> <SMILES>
COc1cc[s]c1CN(C(=O)CCl)c1c(C)cccc1C

> <NAME>
Thenylchlor

> <preferred_name>
Thenylchlor

> <iupac>
2-chloro-N-(2,6-dimethylphenyl)-N-[(3-methoxy-2-thienyl)methyl]acetamide

> <MPID>
27334

> <dsstox_substance_id>
DTXSID0058227

> <Canonical_QSARr>
COc1cc[s]c1CN(C(=O)CCl)c1c(C)cccc1C

> <InChI_Code_QSARr>
InChI=1S/C16H18ClNO2S/c1-11-5-4-6-12(2)16(11)18(15(19)9-17)10-14-13(20-3)7-8-21-14/h4-8H,9-10H2,1-3H3

> <InChI Key_QSARr>
KDWQYMVPYJGPHS-UHFFFAOYSA-N

> <Salt_Solvent>
?

> <LogVP>
-6.6778

$$$$
102946
  -INDIGO-08031723152D

 34 35  0  0  0  0  0  0  0  0999 V2000
    8.7433   -1.7077    0.0000 C   0  0  0  0  0  0  0  0  0  0  0  0
   10.2467   -2.2549    0.0000 H   0  0  0  0  0  0  0  0  0  0  0  0
    9.9689   -0.6792    0.0000 H   0  0  0  0  0  0  0  0  0  0  0  0
    9.0209   -3.2834    0.0000 H   0  0  0  0  0  0  0  0  0  0  0  0
    7.2397   -1.1605    0.0000 S   0  0  0  0  0  0  0  0  0  0  0  0
    5.7363   -0.6132    0.0000 C   0  0  0  0  0  0  0  0  0  0  0  0
    5.4585    0.9625    0.0000 C   0  0  0  0  0  0  0  0  0  0  0  0
    6.6840    1.9909    0.0000 H   0  0  0  0  0  0  0  0  0  0  0  0
    3.9548    1.5097    0.0000 C   0  0  0  0  0  0  0  0  0  0  0  0
    3.6770    3.0854    0.0000 H   0  0  0  0  0  0  0  0  0  0  0  0
    2.7293    0.4812    0.0000 C   0  0  0  0  0  0  0  0  0  0  0  0
    1.2257    1.0284    0.0000 C   0  0  0  0  0  0  0  0  0  0  0  0
   -0.0001   -0.0000    0.0000 C   0  0  0  0  0  0  0  0  0  0  0  0
    1.2257   -1.0285    0.0000 H   0  0  0  0  0  0  0  0  0  0  0  0
   -0.8001    1.3857    0.0000 C   0  0  0  0  0  0  0  0  0  0  0  0
   -0.0001    2.7713    0.0000 O   0  0  0  0  0  0  0  0  0  0  0  0
   -2.3999    1.3857    0.0000 C   0  0  0  0  0  0  0  0  0  0  0  0
   -2.1221    2.9614    0.0000 H   0  0  0  0  0  0  0  0  0  0  0  0
   -3.9036    1.9329    0.0000 H   0  0  0  0  0  0  0  0  0  0  0  0
   -3.1999   -0.0000    0.0000 C   0  0  0  0  0  0  0  0  0  0  0  0
   -4.4257    1.0284    0.0000 H   0  0  0  0  0  0  0  0  0  0  0  0
   -4.4257   -1.0285    0.0000 H   0  0  0  0  0  0  0  0  0  0  0  0
   -2.3999   -1.3856    0.0000 C   0  0  0  0  0  0  0  0  0  0  0  0
   -3.9036   -1.9329    0.0000 H   0  0  0  0  0  0  0  0  0  0  0  0
   -2.1221   -2.9613    0.0000 H   0  0  0  0  0  0  0  0  0  0  0  0
   -0.8001   -1.3856    0.0000 C   0  0  0  0  0  0  0  0  0  0  0  0
   -0.0001   -2.7712    0.0000 O   0  0  0  0  0  0  0  0  0  0  0  0
    0.9478    2.6041    0.0000 O   0  0  0  0  0  0  0  0  0  0  0  0
    3.0069   -1.0945    0.0000 C   0  0  0  0  0  0  0  0  0  0  0  0
    1.7814   -2.1230    0.0000 Cl  0  0  0  0  0  0  0  0  0  0  0  0
    4.5105   -1.6417    0.0000 C   0  0  0  0  0  0  0  0  0  0  0  0
    4.7884   -3.2174    0.0000 H   0  0  0  0  0  0  0  0  0  0  0  0
    7.7869    0.3430    0.0000 O   0  0  0  0  0  0  0  0  0  0  0  0
    6.6925   -2.6640    0.0000 O   0  0  0  0  0  0  0  0  0  0  0  0
  1  2  1  0  0  0  0
  1  3  1  0  0  0  0
  1  4  1  0  0  0  0
  1  5  1  0  0  0  0
  5  6  1  0  0  0  0
  6  7  1  0  0  0  0
  7  8  1  0  0  0  0
  7  9  2  0  0  0  0
  9 10  1  0  0  0  0
  9 11  1  0  0  0  0
 11 12  1  0  0  0  0
 12 13  1  0  0  0  0
 13 14  1  0  0  0  0
 13 15  1  0  0  0  0
 15 16  2  0  0  0  0
 15 17  1  0  0  0  0
 17 18  1  0  0  0  0
 17 19  1  0  0  0  0
 17 20  1  0  0  0  0
 20 21  1  0  0  0  0
 20 22  1  0  0  0  0
 20 23  1  0  0  0  0
 23 24  1  0  0  0  0
 23 25  1  0  0  0  0
 23 26  1  0  0  0  0
 26 13  1  0  0  0  0
 26 27  2  0  0  0  0
 12 28  2  0  0  0  0
 11 29  2  0  0  0  0
 29 30  1  0  0  0  0
 29 31  1  0  0  0  0
 31  6  2  0  0  0  0
 31 32  1  0  0  0  0
  5 33  2  0  0  0  0
  5 34  2  0  0  0  0
M  END
> <ChemID>
102946

> <source_casrn>
99105-77-8

> <CAS>
99105-77-8

> <SMILES>
CS(=O)(=O)c1cc(Cl)c(cc1)C(=O)C1C(=O)CCCC1=O

> <NAME>
ICIA0051 (sulcotrione)

> <preferred_name>
Sulcotrione

> <iupac>
2-[2-chloro-4-(methylsulfonyl)benzoyl]cyclohexane-1,3-dione

> <MPID>
27338

> <dsstox_substance_id>
DTXSID9058230

> <Canonical_QSARr>
CS(=O)(=O)c1cc(Cl)c(cc1)C(=O)C1C(=O)CCCC1=O

> <InChI_Code_QSARr>
InChI=1S/C14H13ClO5S/c1-21(19,20)8-5-6-9(10(15)7-8)14(18)13-11(16)3-2-4-12(13)17/h5-7,13H,2-4H2,1H3

> <InChI Key_QSARr>
PQTBTIFWAXVEPB-UHFFFAOYSA-N

> <Salt_Solvent>
?

> <LogVP>
-7.426

$$$$
102950
  -INDIGO-08031723152D

 49 50  0  0  0  0  0  0  0  0999 V2000
    9.2256    3.7998    0.0000 C   0  0  0  0  0  0  0  0  0  0  0  0
   10.0256    5.1854    0.0000 H   0  0  0  0  0  0  0  0  0  0  0  0
   10.8258    3.7998    0.0000 H   0  0  0  0  0  0  0  0  0  0  0  0
    8.4257    5.1854    0.0000 H   0  0  0  0  0  0  0  0  0  0  0  0
    8.4257    2.4141    0.0000 C   0  0  0  0  0  0  0  0  0  0  0  0
    9.6952    1.4401    0.0000 H   0  0  0  0  0  0  0  0  0  0  0  0
    8.6345    0.8278    0.0000 H   0  0  0  0  0  0  0  0  0  0  0  0
    6.8258    2.4141    0.0000 C   0  0  0  0  0  0  0  0  0  0  0  0
    5.5563    3.3882    0.0000 H   0  0  0  0  0  0  0  0  0  0  0  0
    6.6167    4.0004    0.0000 H   0  0  0  0  0  0  0  0  0  0  0  0
    6.0256    1.0285    0.0000 C   0  0  0  0  0  0  0  0  0  0  0  0
    4.4257    1.0285    0.0000 C   0  0  0  0  0  0  0  0  0  0  0  0
    3.6257    2.4141    0.0000 C   0  0  0  0  0  0  0  0  0  0  0  0
    4.4257    3.7998    0.0000 O   0  0  0  0  0  0  0  0  0  0  0  0
    3.6257    5.1854    0.0000 H   0  0  0  0  0  0  0  0  0  0  0  0
    2.0256    2.4141    0.0000 C   0  0  0  0  0  0  0  0  0  0  0  0
    2.3036    3.9898    0.0000 H   0  0  0  0  0  0  0  0  0  0  0  0
    0.5221    2.9614    0.0000 H   0  0  0  0  0  0  0  0  0  0  0  0
    1.2256    1.0285    0.0000 C   0  0  0  0  0  0  0  0  0  0  0  0
    0.8366    1.7025    0.0000 H   0  0  0  0  0  0  0  0  0  0  0  0
   -0.0001    0.0000    0.0000 C   0  0  0  0  0  0  0  0  0  0  0  0
    0.3892   -0.6740    0.0000 H   0  0  0  0  0  0  0  0  0  0  0  0
   -0.8001    1.3856    0.0000 C   0  0  0  0  0  0  0  0  0  0  0  0
   -0.1601    1.8284    0.0000 H   0  0  0  0  0  0  0  0  0  0  0  0
   -1.0778    2.9614    0.0000 H   0  0  0  0  0  0  0  0  0  0  0  0
   -2.4000    1.3856    0.0000 C   0  0  0  0  0  0  0  0  0  0  0  0
   -2.1223    2.9614    0.0000 H   0  0  0  0  0  0  0  0  0  0  0  0
   -3.9034    1.9329    0.0000 H   0  0  0  0  0  0  0  0  0  0  0  0
   -3.1999    0.0000    0.0000 C   0  0  0  0  0  0  0  0  0  0  0  0
   -4.4257    1.0285    0.0000 H   0  0  0  0  0  0  0  0  0  0  0  0
   -4.4257   -1.0285    0.0000 H   0  0  0  0  0  0  0  0  0  0  0  0
   -2.4000   -1.3856    0.0000 S   0  0  0  0  0  0  0  0  0  0  0  0
   -0.8001   -1.3856    0.0000 C   0  0  0  0  0  0  0  0  0  0  0  0
   -1.0778   -2.9613    0.0000 H   0  0  0  0  0  0  0  0  0  0  0  0
    0.7034   -1.9328    0.0000 H   0  0  0  0  0  0  0  0  0  0  0  0
    2.0256   -0.3571    0.0000 C   0  0  0  0  0  0  0  0  0  0  0  0
    1.3856   -0.8000    0.0000 H   0  0  0  0  0  0  0  0  0  0  0  0
    2.3036   -1.9328    0.0000 H   0  0  0  0  0  0  0  0  0  0  0  0
    3.6257   -0.3571    0.0000 C   0  0  0  0  0  0  0  0  0  0  0  0
    4.4257   -1.7428    0.0000 O   0  0  0  0  0  0  0  0  0  0  0  0
    6.8258   -0.3571    0.0000 N   0  0  0  0  0  0  0  0  0  0  0  0
    8.4257   -0.3571    0.0000 O   0  0  0  0  0  0  0  0  0  0  0  0
    9.2256   -1.7428    0.0000 C   0  0  0  0  0  0  0  0  0  0  0  0
    9.0168   -3.3291    0.0000 H   0  0  0  0  0  0  0  0  0  0  0  0
    7.9564   -2.7168    0.0000 H   0  0  0  0  0  0  0  0  0  0  0  0
   10.8258   -1.7428    0.0000 C   0  0  0  0  0  0  0  0  0  0  0  0
   12.4257   -1.7428    0.0000 H   0  0  0  0  0  0  0  0  0  0  0  0
   11.6257   -3.1284    0.0000 H   0  0  0  0  0  0  0  0  0  0  0  0
   11.6257   -0.3571    0.0000 H   0  0  0  0  0  0  0  0  0  0  0  0
  1  2  1  0  0  0  0
  1  3  1  0  0  0  0
  1  4  1  0  0  0  0
  1  5  1  0  0  0  0
  5  6  1  0  0  0  0
  5  7  1  0  0  0  0
  5  8  1  0  0  0  0
  8  9  1  0  0  0  0
  8 10  1  0  0  0  0
  8 11  1  0  0  0  0
 11 12  1  0  0  0  0
 12 13  2  0  0  0  0
 13 14  1  0  0  0  0
 14 15  1  0  0  0  0
 13 16  1  0  0  0  0
 16 17  1  0  0  0  0
 16 18  1  0  0  0  0
 16 19  1  0  0  0  0
 19 20  1  0  0  0  0
 19 21  1  0  0  0  0
 21 22  1  0  0  0  0
 21 23  1  0  0  0  0
 23 24  1  0  0  0  0
 23 25  1  0  0  0  0
 23 26  1  0  0  0  0
 26 27  1  0  0  0  0
 26 28  1  0  0  0  0
 26 29  1  0  0  0  0
 29 30  1  0  0  0  0
 29 31  1  0  0  0  0
 29 32  1  0  0  0  0
 32 33  1  0  0  0  0
 33 21  1  0  0  0  0
 33 34  1  0  0  0  0
 33 35  1  0  0  0  0
 19 36  1  0  0  0  0
 36 37  1  0  0  0  0
 36 38  1  0  0  0  0
 36 39  1  0  0  0  0
 39 12  1  0  0  0  0
 39 40  2  0  0  0  0
 11 41  2  0  0  0  0
 41 42  1  0  0  0  0
 42 43  1  0  0  0  0
 43 44  1  0  0  0  0
 43 45  1  0  0  0  0
 43 46  1  0  0  0  0
 46 47  1  0  0  0  0
 46 48  1  0  0  0  0
 46 49  1  0  0  0  0
M  END
> <ChemID>
102950

> <source_casrn>
101205-02-1

> <CAS>
101205-02-1

> <SMILES>
CCON=C(CCC)C1=C(O)CC(CC1=O)C1CSCCC1

> <NAME>
Cycloxydim

> <preferred_name>
Cycloxydim

> <iupac>
2-(N-ethoxybutanimidoyl)-3-hydroxy-5-(tetrahydro-2H-thiopyran-3-yl)cyclohex-2-en-1-one

> <MPID>
27342

> <dsstox_substance_id>
DTXSID0057918

> <Canonical_QSARr>
CCON=C(CCC)C1=C(O)CC(CC1=O)C1CSCCC1

> <InChI_Code_QSARr>
InChI=1S/C17H27NO3S/c1-3-6-14(18-21-4-2)17-15(19)9-13(10-16(17)20)12-7-5-8-22-11-12/h12-13,19H,3-11H2,1-2H3/b18-14+

> <InChI Key_QSARr>
GGWHBJGBERXSLL-NBVRZTHBSA-N

> <Salt_Solvent>
?

> <LogVP>
-7.1249

$$$$
102954
  -INDIGO-08031723152D

 41 44  0  0  0  0  0  0  0  0999 V2000
    1.7322    5.1239    0.0000 F   0  0  0  0  0  0  0  0  0  0  0  0
    3.1180    4.3238    0.0000 C   0  0  0  0  0  0  0  0  0  0  0  0
    3.1180    2.7239    0.0000 C   0  0  0  0  0  0  0  0  0  0  0  0
    1.7322    1.9239    0.0000 N   0  0  0  0  0  0  0  0  0  0  0  0
    0.2707    2.5746    0.0000 C   0  0  0  0  0  0  0  0  0  0  0  0
   -0.0620    4.1397    0.0000 O   0  0  0  0  0  0  0  0  0  0  0  0
   -0.8000    1.3857    0.0000 C   0  0  0  0  0  0  0  0  0  0  0  0
   -0.0001    0.0000    0.0000 C   0  0  0  0  0  0  0  0  0  0  0  0
   -0.8000   -1.3856    0.0000 C   0  0  0  0  0  0  0  0  0  0  0  0
   -1.0778   -2.9613    0.0000 H   0  0  0  0  0  0  0  0  0  0  0  0
    0.7036   -1.9329    0.0000 H   0  0  0  0  0  0  0  0  0  0  0  0
   -2.3999   -1.3856    0.0000 C   0  0  0  0  0  0  0  0  0  0  0  0
   -3.9035   -1.9329    0.0000 H   0  0  0  0  0  0  0  0  0  0  0  0
   -2.1221   -2.9613    0.0000 H   0  0  0  0  0  0  0  0  0  0  0  0
   -3.2001    0.0000    0.0000 C   0  0  0  0  0  0  0  0  0  0  0  0
   -4.4257    1.0285    0.0000 H   0  0  0  0  0  0  0  0  0  0  0  0
   -4.4257   -1.0284    0.0000 H   0  0  0  0  0  0  0  0  0  0  0  0
   -2.3999    1.3857    0.0000 C   0  0  0  0  0  0  0  0  0  0  0  0
   -2.1221    2.9614    0.0000 H   0  0  0  0  0  0  0  0  0  0  0  0
   -3.9035    1.9329    0.0000 H   0  0  0  0  0  0  0  0  0  0  0  0
    1.5650    0.3327    0.0000 C   0  0  0  0  0  0  0  0  0  0  0  0
    2.7540   -0.7380    0.0000 O   0  0  0  0  0  0  0  0  0  0  0  0
    4.5035    1.9239    0.0000 C   0  0  0  0  0  0  0  0  0  0  0  0
    4.5035    0.3238    0.0000 H   0  0  0  0  0  0  0  0  0  0  0  0
    5.8892    2.7239    0.0000 C   0  0  0  0  0  0  0  0  0  0  0  0
    5.8892    4.3238    0.0000 C   0  0  0  0  0  0  0  0  0  0  0  0
    7.2747    5.1239    0.0000 O   0  0  0  0  0  0  0  0  0  0  0  0
    8.6605    4.3238    0.0000 C   0  0  0  0  0  0  0  0  0  0  0  0
   10.2362    4.0460    0.0000 H   0  0  0  0  0  0  0  0  0  0  0  0
    9.2078    5.8274    0.0000 H   0  0  0  0  0  0  0  0  0  0  0  0
    8.6605    2.7239    0.0000 C   0  0  0  0  0  0  0  0  0  0  0  0
   10.0460    1.9239    0.0000 O   0  0  0  0  0  0  0  0  0  0  0  0
    7.2747    1.9239    0.0000 N   0  0  0  0  0  0  0  0  0  0  0  0
    7.2747    0.3238    0.0000 C   0  0  0  0  0  0  0  0  0  0  0  0
    6.3008   -0.9455    0.0000 H   0  0  0  0  0  0  0  0  0  0  0  0
    5.6886    0.1150    0.0000 H   0  0  0  0  0  0  0  0  0  0  0  0
    8.6605   -0.4761    0.0000 C   0  0  0  0  0  0  0  0  0  0  0  0
   10.0460   -1.2761    0.0000 C   0  0  0  0  0  0  0  0  0  0  0  0
   11.4318   -2.0761    0.0000 H   0  0  0  0  0  0  0  0  0  0  0  0
    4.5035    5.1239    0.0000 C   0  0  0  0  0  0  0  0  0  0  0  0
    4.5035    6.7239    0.0000 H   0  0  0  0  0  0  0  0  0  0  0  0
  1  2  1  0  0  0  0
  2  3  1  0  0  0  0
  3  4  1  0  0  0  0
  4  5  1  0  0  0  0
  5  6  2  0  0  0  0
  5  7  1  0  0  0  0
  7  8  2  0  0  0  0
  8  9  1  0  0  0  0
  9 10  1  0  0  0  0
  9 11  1  0  0  0  0
  9 12  1  0  0  0  0
 12 13  1  0  0  0  0
 12 14  1  0  0  0  0
 12 15  1  0  0  0  0
 15 16  1  0  0  0  0
 15 17  1  0  0  0  0
 15 18  1  0  0  0  0
 18  7  1  0  0  0  0
 18 19  1  0  0  0  0
 18 20  1  0  0  0  0
  8 21  1  0  0  0  0
 21  4  1  0  0  0  0
 21 22  2  0  0  0  0
  3 23  2  0  0  0  0
 23 24  1  0  0  0  0
 23 25  1  0  0  0  0
 25 26  2  0  0  0  0
 26 27  1  0  0  0  0
 27 28  1  0  0  0  0
 28 29  1  0  0  0  0
 28 30  1  0  0  0  0
 28 31  1  0  0  0  0
 31 32  2  0  0  0  0
 31 33  1  0  0  0  0
 33 25  1  0  0  0  0
 33 34  1  0  0  0  0
 34 35  1  0  0  0  0
 34 36  1  0  0  0  0
 34 37  1  0  0  0  0
 37 38  3  0  0  0  0
 38 39  1  0  0  0  0
 26 40  1  0  0  0  0
 40  2  2  0  0  0  0
 40 41  1  0  0  0  0
M  END
> <ChemID>
102954

> <source_casrn>
103361-09-7

> <CAS>
103361-09-7

> <SMILES>
C#CCN1c2cc(c(F)cc2OCC1=O)N1C(=O)C2CCCCC=2C1=O

> <NAME>
Flumioxazin

> <preferred_name>
Flumioxazin

> <iupac>
2-[7-fluoro-3-oxo-4-(prop-2-yn-1-yl)-3,4-dihydro-2H-1,4-benzoxazin-6-yl]-4,5,6,7-tetrahydro-1H-isoindole-1,3(2H)-dione

> <MPID>
27346

> <dsstox_substance_id>
DTXSID7032555

> <Canonical_QSARr>
C#CCN1c2cc(c(F)cc2OCC1=O)N1C(=O)C2CCCCC=2C1=O

> <InChI_Code_QSARr>
InChI=1S/C19H15FN2O4/c1-2-7-21-15-9-14(13(20)8-16(15)26-10-17(21)23)22-18(24)11-5-3-4-6-12(11)19(22)25/h1,8-9H,3-7,10H2

> <InChI Key_QSARr>
FOUWCSDKDDHKQP-UHFFFAOYSA-N

> <Salt_Solvent>
?

> <LogVP>
-5.618

$$$$
102958
  -INDIGO-08031723152D

 28 29  0  0  0  0  0  0  0  0999 V2000
   -0.0001   -2.7713    0.0000 O   0  0  0  0  0  0  0  0  0  0  0  0
    0.8000   -4.1569    0.0000 H   0  0  0  0  0  0  0  0  0  0  0  0
    0.8000   -1.3857    0.0000 C   0  0  0  0  0  0  0  0  0  0  0  0
   -0.0001   -0.0000    0.0000 C   0  0  0  0  0  0  0  0  0  0  0  0
    1.2257    1.0285    0.0000 H   0  0  0  0  0  0  0  0  0  0  0  0
   -1.5034   -0.5472    0.0000 C   0  0  0  0  0  0  0  0  0  0  0  0
   -1.2257   -2.1229    0.0000 H   0  0  0  0  0  0  0  0  0  0  0  0
   -3.1035   -0.5472    0.0000 H   0  0  0  0  0  0  0  0  0  0  0  0
   -1.2257    1.0285    0.0000 C   0  0  0  0  0  0  0  0  0  0  0  0
   -2.7292    1.5757    0.0000 H   0  0  0  0  0  0  0  0  0  0  0  0
   -0.4257    2.4141    0.0000 H   0  0  0  0  0  0  0  0  0  0  0  0
    2.4000   -1.3857    0.0000 C   0  0  0  0  0  0  0  0  0  0  0  0
    3.2001   -0.0000    0.0000 C   0  0  0  0  0  0  0  0  0  0  0  0
    2.4000    1.3856    0.0000 O   0  0  0  0  0  0  0  0  0  0  0  0
    4.7999   -0.0000    0.0000 C   0  0  0  0  0  0  0  0  0  0  0  0
    4.5222    1.5757    0.0000 H   0  0  0  0  0  0  0  0  0  0  0  0
    6.3035    0.5472    0.0000 H   0  0  0  0  0  0  0  0  0  0  0  0
    5.6000   -1.3857    0.0000 C   0  0  0  0  0  0  0  0  0  0  0  0
    6.8256   -0.3572    0.0000 H   0  0  0  0  0  0  0  0  0  0  0  0
    7.1035   -1.9329    0.0000 C   0  0  0  0  0  0  0  0  0  0  0  0
    8.3291   -0.9044    0.0000 O   0  0  0  0  0  0  0  0  0  0  0  0
    9.8327   -1.4517    0.0000 H   0  0  0  0  0  0  0  0  0  0  0  0
    7.3813   -3.5085    0.0000 O   0  0  0  0  0  0  0  0  0  0  0  0
    4.7999   -2.7713    0.0000 C   0  0  0  0  0  0  0  0  0  0  0  0
    6.3035   -3.3185    0.0000 H   0  0  0  0  0  0  0  0  0  0  0  0
    4.5222   -4.3470    0.0000 H   0  0  0  0  0  0  0  0  0  0  0  0
    3.2001   -2.7713    0.0000 C   0  0  0  0  0  0  0  0  0  0  0  0
    2.4000   -4.1569    0.0000 O   0  0  0  0  0  0  0  0  0  0  0  0
  1  2  1  0  0  0  0
  1  3  1  0  0  0  0
  3  4  1  0  0  0  0
  4  5  1  0  0  0  0
  4  6  1  0  0  0  0
  6  7  1  0  0  0  0
  6  8  1  0  0  0  0
  6  9  1  0  0  0  0
  9  4  1  0  0  0  0
  9 10  1  0  0  0  0
  9 11  1  0  0  0  0
  3 12  2  0  0  0  0
 12 13  1  0  0  0  0
 13 14  2  0  0  0  0
 13 15  1  0  0  0  0
 15 16  1  0  0  0  0
 15 17  1  0  0  0  0
 15 18  1  0  0  0  0
 18 19  1  0  0  0  0
 18 20  1  0  0  0  0
 20 21  1  0  0  0  0
 21 22  1  0  0  0  0
 20 23  2  0  0  0  0
 18 24  1  0  0  0  0
 24 25  1  0  0  0  0
 24 26  1  0  0  0  0
 24 27  1  0  0  0  0
 27 12  1  0  0  0  0
 27 28  2  0  0  0  0
M  END
> <ChemID>
102958

> <source_casrn>
104273-73-6

> <CAS>
143294-89-7

> <SMILES>
OC(=O)C1CC(=O)C(C(=O)C1)=C(O)C1CC1

> <NAME>
TRINEXAPAC

> <preferred_name>
PUBCHEM_14371531

> <iupac>
C11H12O5

> <MPID>
27350

> <dsstox_substance_id>
DTXSID90559517

> <Canonical_QSARr>
OC(=O)C1CC(=O)C(C(=O)C1)=C(O)C1CC1

> <InChI_Code_QSARr>
InChI=1S/C11H12O5/c12-7-3-6(11(15)16)4-8(13)9(7)10(14)5-1-2-5/h5-6,14H,1-4H2,(H,15,16)/b10-9-

> <InChI Key_QSARr>
DFFWZNDCNBOKDI-KTKRTIGZSA-N

> <Salt_Solvent>
?

> <LogVP>
-7.762

$$$$
102962
  -INDIGO-08031723152D

 22 24  0  0  0  0  0  0  0  0999 V2000
   -1.3856    0.8000    0.0000 O   0  0  0  0  0  0  0  0  0  0  0  0
   -2.7712   -0.0000    0.0000 C   0  0  0  0  0  0  0  0  0  0  0  0
   -2.7712   -1.6000    0.0000 C   0  0  0  0  0  0  0  0  0  0  0  0
   -4.1569   -2.4000    0.0000 C   0  0  0  0  0  0  0  0  0  0  0  0
   -4.1569   -4.0000    0.0000 H   0  0  0  0  0  0  0  0  0  0  0  0
   -5.5425   -1.6000    0.0000 C   0  0  0  0  0  0  0  0  0  0  0  0
   -6.9282   -2.4000    0.0000 H   0  0  0  0  0  0  0  0  0  0  0  0
   -5.5425   -0.0000    0.0000 C   0  0  0  0  0  0  0  0  0  0  0  0
   -6.9282    0.8000    0.0000 H   0  0  0  0  0  0  0  0  0  0  0  0
   -4.1569    0.8000    0.0000 C   0  0  0  0  0  0  0  0  0  0  0  0
   -4.1569    2.4000    0.0000 H   0  0  0  0  0  0  0  0  0  0  0  0
   -1.3856   -2.4000    0.0000 O   0  0  0  0  0  0  0  0  0  0  0  0
   -0.0001   -1.6000    0.0000 C   0  0  0  0  0  0  0  0  0  0  0  0
   -0.0001   -0.0000    0.0000 C   0  0  0  0  0  0  0  0  0  0  0  0
    1.3856    0.8000    0.0000 C   0  0  0  0  0  0  0  0  0  0  0  0
    1.3856    2.4000    0.0000 H   0  0  0  0  0  0  0  0  0  0  0  0
    2.7713   -0.0000    0.0000 C   0  0  0  0  0  0  0  0  0  0  0  0
    2.7713   -1.6000    0.0000 C   0  0  0  0  0  0  0  0  0  0  0  0
    4.1569   -2.4000    0.0000 H   0  0  0  0  0  0  0  0  0  0  0  0
    1.3856   -2.4000    0.0000 C   0  0  0  0  0  0  0  0  0  0  0  0
    1.3856   -4.0000    0.0000 H   0  0  0  0  0  0  0  0  0  0  0  0
    4.1569    0.8000    0.0000 Br  0  0  0  0  0  0  0  0  0  0  0  0
  1  2  1  0  0  0  0
  2  3  1  0  0  0  0
  3  4  2  0  0  0  0
  4  5  1  0  0  0  0
  4  6  1  0  0  0  0
  6  7  1  0  0  0  0
  6  8  2  0  0  0  0
  8  9  1  0  0  0  0
  8 10  1  0  0  0  0
 10  2  2  0  0  0  0
 10 11  1  0  0  0  0
  3 12  1  0  0  0  0
 12 13  1  0  0  0  0
 13 14  1  0  0  0  0
 14  1  1  0  0  0  0
 14 15  2  0  0  0  0
 15 16  1  0  0  0  0
 15 17  1  0  0  0  0
 17 18  2  0  0  0  0
 18 19  1  0  0  0  0
 18 20  1  0  0  0  0
 20 13  2  0  0  0  0
 20 21  1  0  0  0  0
 17 22  1  0  0  0  0
M  END
> <ChemID>
102962

> <source_casrn>
105906-36-3

> <CAS>
NOCAS_872100

> <SMILES>
Brc1cc2Oc3ccccc3Oc2cc1

> <NAME>
2-MONOBROMODIBENZO-P-DIOXIN

> <preferred_name>


> <iupac>


> <MPID>
27354

> <dsstox_substance_id>
DTXSID20872100

> <Canonical_QSARr>
Brc1cc2Oc3ccccc3Oc2cc1

> <InChI_Code_QSARr>
InChI=1S/C12H7BrO2/c13-8-5-6-11-12(7-8)15-10-4-2-1-3-9(10)14-11/h1-7H

> <InChI Key_QSARr>
GSUCEGNAROQSGU-UHFFFAOYSA-N

> <Salt_Solvent>
?

> <LogVP>
-4.5229

$$$$
102966
  -INDIGO-08031723152D

 30 31  0  0  0  0  0  0  0  0999 V2000
   -4.1568    0.8000    0.0000 N   0  0  0  0  0  0  0  0  0  0  0  0
   -2.7714    0.0000    0.0000 C   0  0  0  0  0  0  0  0  0  0  0  0
   -1.3857    0.8000    0.0000 N   0  0  0  0  0  0  0  0  0  0  0  0
   -1.3857    2.3999    0.0000 H   0  0  0  0  0  0  0  0  0  0  0  0
    0.0000    0.0000    0.0000 C   0  0  0  0  0  0  0  0  0  0  0  0
    1.3857    0.8000    0.0000 C   0  0  0  0  0  0  0  0  0  0  0  0
    1.3857    2.4001    0.0000 H   0  0  0  0  0  0  0  0  0  0  0  0
    2.7712    0.0000    0.0000 C   0  0  0  0  0  0  0  0  0  0  0  0
    4.1569    0.8000    0.0000 H   0  0  0  0  0  0  0  0  0  0  0  0
    2.7712   -1.6000    0.0000 C   0  0  0  0  0  0  0  0  0  0  0  0
    4.1569   -2.4000    0.0000 H   0  0  0  0  0  0  0  0  0  0  0  0
    1.3857   -2.4000    0.0000 C   0  0  0  0  0  0  0  0  0  0  0  0
    1.3857   -3.9999    0.0000 H   0  0  0  0  0  0  0  0  0  0  0  0
    0.0000   -1.6000    0.0000 C   0  0  0  0  0  0  0  0  0  0  0  0
   -1.3857   -2.4000    0.0000 H   0  0  0  0  0  0  0  0  0  0  0  0
   -2.7714   -1.6000    0.0000 N   0  0  0  0  0  0  0  0  0  0  0  0
   -4.1568   -2.4000    0.0000 C   0  0  0  0  0  0  0  0  0  0  0  0
   -4.1568   -4.0001    0.0000 C   0  0  0  0  0  0  0  0  0  0  0  0
   -4.1568   -5.6000    0.0000 H   0  0  0  0  0  0  0  0  0  0  0  0
   -5.5425   -4.8000    0.0000 H   0  0  0  0  0  0  0  0  0  0  0  0
   -2.7714   -4.8000    0.0000 H   0  0  0  0  0  0  0  0  0  0  0  0
   -5.5425   -1.6000    0.0000 C   0  0  0  0  0  0  0  0  0  0  0  0
   -6.9282   -2.4000    0.0000 H   0  0  0  0  0  0  0  0  0  0  0  0
   -5.5425    0.0000    0.0000 C   0  0  0  0  0  0  0  0  0  0  0  0
   -6.9282    0.8000    0.0000 C   0  0  0  0  0  0  0  0  0  0  0  0
   -8.3139    1.6000    0.0000 C   0  0  0  0  0  0  0  0  0  0  0  0
   -9.6994    2.4001    0.0000 C   0  0  0  0  0  0  0  0  0  0  0  0
  -11.0851    3.2000    0.0000 H   0  0  0  0  0  0  0  0  0  0  0  0
   -9.6994    4.0000    0.0000 H   0  0  0  0  0  0  0  0  0  0  0  0
  -11.0851    1.6000    0.0000 H   0  0  0  0  0  0  0  0  0  0  0  0
  1  2  1  0  0  0  0
  2  3  1  0  0  0  0
  3  4  1  0  0  0  0
  3  5  1  0  0  0  0
  5  6  1  0  0  0  0
  6  7  1  0  0  0  0
  6  8  2  0  0  0  0
  8  9  1  0  0  0  0
  8 10  1  0  0  0  0
 10 11  1  0  0  0  0
 10 12  2  0  0  0  0
 12 13  1  0  0  0  0
 12 14  1  0  0  0  0
 14  5  2  0  0  0  0
 14 15  1  0  0  0  0
  2 16  2  0  0  0  0
 16 17  1  0  0  0  0
 17 18  1  0  0  0  0
 18 19  1  0  0  0  0
 18 20  1  0  0  0  0
 18 21  1  0  0  0  0
 17 22  2  0  0  0  0
 22 23  1  0  0  0  0
 22 24  1  0  0  0  0
 24  1  2  0  0  0  0
 24 25  1  0  0  0  0
 25 26  3  0  0  0  0
 26 27  1  0  0  0  0
 27 28  1  0  0  0  0
 27 29  1  0  0  0  0
 27 30  1  0  0  0  0
M  END
> <ChemID>
102966

> <source_casrn>
110235-47-7

> <CAS>
110235-47-7

> <SMILES>
Cc1cc(C#CC)[n]c(Nc2ccccc2)[n]1

> <NAME>
MEPANIPYRIM

> <preferred_name>
Mepanipyrim

> <iupac>
4-methyl-N-phenyl-6-(prop-1-yn-1-yl)pyrimidin-2-amine

> <MPID>
27358

> <dsstox_substance_id>
DTXSID4042121

> <Canonical_QSARr>
Cc1cc(C#CC)[n]c(Nc2ccccc2)[n]1

> <InChI_Code_QSARr>
InChI=1S/C14H13N3/c1-3-7-13-10-11(2)15-14(17-13)16-12-8-5-4-6-9-12/h4-6,8-10H,1-2H3,(H,15,16,17)

> <InChI Key_QSARr>
CIFWZNRJIBNXRE-UHFFFAOYSA-N

> <Salt_Solvent>
?

> <LogVP>
-6.7595

$$$$
102970
  -INDIGO-08031723152D

 58 60  0  0  0  0  0  0  0  0999 V2000
   17.6000   -2.9160    0.0000 C   0  0  0  0  0  0  0  0  0  0  0  0
   19.1383   -2.4748    0.0000 H   0  0  0  0  0  0  0  0  0  0  0  0
   17.9873   -1.3634    0.0000 H   0  0  0  0  0  0  0  0  0  0  0  0
   18.7511   -4.0274    0.0000 H   0  0  0  0  0  0  0  0  0  0  0  0
   16.0621   -3.3569    0.0000 N   0  0  0  0  0  0  0  0  0  0  0  0
   14.5404   -2.8624    0.0000 C   0  0  0  0  0  0  0  0  0  0  0  0
   14.0459   -1.3408    0.0000 O   0  0  0  0  0  0  0  0  0  0  0  0
   15.1166   -0.1518    0.0000 C   0  0  0  0  0  0  0  0  0  0  0  0
   14.6221    1.3698    0.0000 C   0  0  0  0  0  0  0  0  0  0  0  0
   13.0571    1.7026    0.0000 H   0  0  0  0  0  0  0  0  0  0  0  0
   15.6928    2.5590    0.0000 C   0  0  0  0  0  0  0  0  0  0  0  0
   15.1983    4.0806    0.0000 H   0  0  0  0  0  0  0  0  0  0  0  0
   17.2578    2.2262    0.0000 C   0  0  0  0  0  0  0  0  0  0  0  0
   18.3285    3.4154    0.0000 H   0  0  0  0  0  0  0  0  0  0  0  0
   17.7523    0.7046    0.0000 C   0  0  0  0  0  0  0  0  0  0  0  0
   19.3173    0.3720    0.0000 H   0  0  0  0  0  0  0  0  0  0  0  0
   16.6816   -0.4844    0.0000 C   0  0  0  0  0  0  0  0  0  0  0  0
   17.1761   -2.0060    0.0000 H   0  0  0  0  0  0  0  0  0  0  0  0
   13.5999   -4.1569    0.0000 C   0  0  0  0  0  0  0  0  0  0  0  0
   11.9998   -4.1569    0.0000 C   0  0  0  0  0  0  0  0  0  0  0  0
   11.2000   -5.5425    0.0000 H   0  0  0  0  0  0  0  0  0  0  0  0
   11.2000   -2.7713    0.0000 N   0  0  0  0  0  0  0  0  0  0  0  0
    9.5998   -2.7713    0.0000 O   0  0  0  0  0  0  0  0  0  0  0  0
    8.8000   -1.3857    0.0000 C   0  0  0  0  0  0  0  0  0  0  0  0
    9.0089    0.2007    0.0000 H   0  0  0  0  0  0  0  0  0  0  0  0
   10.0695   -0.4116    0.0000 H   0  0  0  0  0  0  0  0  0  0  0  0
    7.1998   -1.3857    0.0000 C   0  0  0  0  0  0  0  0  0  0  0  0
    6.4000   -0.0000    0.0000 C   0  0  0  0  0  0  0  0  0  0  0  0
    7.1998    1.3856    0.0000 H   0  0  0  0  0  0  0  0  0  0  0  0
    4.7999   -0.0000    0.0000 C   0  0  0  0  0  0  0  0  0  0  0  0
    4.0000    1.3856    0.0000 H   0  0  0  0  0  0  0  0  0  0  0  0
    4.0000   -1.3857    0.0000 C   0  0  0  0  0  0  0  0  0  0  0  0
    2.3999   -1.3857    0.0000 C   0  0  0  0  0  0  0  0  0  0  0  0
    1.6000   -2.7713    0.0000 O   0  0  0  0  0  0  0  0  0  0  0  0
    1.6000   -0.0000    0.0000 O   0  0  0  0  0  0  0  0  0  0  0  0
   -0.0001   -0.0000    0.0000 C   0  0  0  0  0  0  0  0  0  0  0  0
   -1.5999   -0.0000    0.0000 C   0  0  0  0  0  0  0  0  0  0  0  0
   -3.2000   -0.0000    0.0000 H   0  0  0  0  0  0  0  0  0  0  0  0
   -2.4001    1.3856    0.0000 H   0  0  0  0  0  0  0  0  0  0  0  0
   -2.6286   -1.2256    0.0000 H   0  0  0  0  0  0  0  0  0  0  0  0
   -0.0001    1.5999    0.0000 C   0  0  0  0  0  0  0  0  0  0  0  0
   -0.0001    3.2001    0.0000 H   0  0  0  0  0  0  0  0  0  0  0  0
    1.3856    2.4001    0.0000 H   0  0  0  0  0  0  0  0  0  0  0  0
   -1.3855    2.4001    0.0000 H   0  0  0  0  0  0  0  0  0  0  0  0
   -0.0001   -1.6000    0.0000 C   0  0  0  0  0  0  0  0  0  0  0  0
    0.2778   -3.1756    0.0000 H   0  0  0  0  0  0  0  0  0  0  0  0
   -1.2257   -2.6285    0.0000 H   0  0  0  0  0  0  0  0  0  0  0  0
   -1.5033   -1.0527    0.0000 H   0  0  0  0  0  0  0  0  0  0  0  0
    4.7999   -2.7713    0.0000 C   0  0  0  0  0  0  0  0  0  0  0  0
    4.0000   -4.1569    0.0000 H   0  0  0  0  0  0  0  0  0  0  0  0
    6.4000   -2.7713    0.0000 C   0  0  0  0  0  0  0  0  0  0  0  0
    7.1998   -4.1569    0.0000 H   0  0  0  0  0  0  0  0  0  0  0  0
   14.5404   -5.4514    0.0000 C   0  0  0  0  0  0  0  0  0  0  0  0
   14.0459   -6.9731    0.0000 C   0  0  0  0  0  0  0  0  0  0  0  0
   13.5515   -8.4947    0.0000 H   0  0  0  0  0  0  0  0  0  0  0  0
   15.1166   -8.1620    0.0000 H   0  0  0  0  0  0  0  0  0  0  0  0
   12.4809   -7.3058    0.0000 H   0  0  0  0  0  0  0  0  0  0  0  0
   16.0621   -4.9569    0.0000 N   0  0  0  0  0  0  0  0  0  0  0  0
  1  2  1  0  0  0  0
  1  3  1  0  0  0  0
  1  4  1  0  0  0  0
  1  5  1  0  0  0  0
  5  6  1  0  0  0  0
  6  7  1  0  0  0  0
  7  8  1  0  0  0  0
  8  9  1  0  0  0  0
  9 10  1  0  0  0  0
  9 11  2  0  0  0  0
 11 12  1  0  0  0  0
 11 13  1  0  0  0  0
 13 14  1  0  0  0  0
 13 15  2  0  0  0  0
 15 16  1  0  0  0  0
 15 17  1  0  0  0  0
 17  8  2  0  0  0  0
 17 18  1  0  0  0  0
  6 19  2  0  0  0  0
 19 20  1  0  0  0  0
 20 21  1  0  0  0  0
 20 22  2  0  0  0  0
 22 23  1  0  0  0  0
 23 24  1  0  0  0  0
 24 25  1  0  0  0  0
 24 26  1  0  0  0  0
 24 27  1  0  0  0  0
 27 28  1  0  0  0  0
 28 29  1  0  0  0  0
 28 30  2  0  0  0  0
 30 31  1  0  0  0  0
 30 32  1  0  0  0  0
 32 33  1  0  0  0  0
 33 34  2  0  0  0  0
 33 35  1  0  0  0  0
 35 36  1  0  0  0  0
 36 37  1  0  0  0  0
 37 38  1  0  0  0  0
 37 39  1  0  0  0  0
 37 40  1  0  0  0  0
 36 41  1  0  0  0  0
 41 42  1  0  0  0  0
 41 43  1  0  0  0  0
 41 44  1  0  0  0  0
 36 45  1  0  0  0  0
 45 46  1  0  0  0  0
 45 47  1  0  0  0  0
 45 48  1  0  0  0  0
 32 49  2  0  0  0  0
 49 50  1  0  0  0  0
 49 51  1  0  0  0  0
 51 27  2  0  0  0  0
 51 52  1  0  0  0  0
 19 53  1  0  0  0  0
 53 54  1  0  0  0  0
 54 55  1  0  0  0  0
 54 56  1  0  0  0  0
 54 57  1  0  0  0  0
 53 58  2  0  0  0  0
 58  5  1  0  0  0  0
M  END
> <ChemID>
102970

> <source_casrn>
111812-58-9

> <CAS>
111812-58-9

> <SMILES>
Cc1[n][n](C)c(Oc2ccccc2)c1C=NOCc1ccc(cc1)C(=O)OC(C)(C)C

> <NAME>
Fenpyroximate

> <preferred_name>
Fenpyroximate (Z,E)

> <iupac>


> <MPID>
27362

> <dsstox_substance_id>
DTXSID2032550

> <Canonical_QSARr>
Cc1[n][n](C)c(Oc2ccccc2)c1C=NOCc1ccc(cc1)C(=O)OC(C)(C)C

> <InChI_Code_QSARr>
InChI=1S/C24H27N3O4/c1-17-21(22(27(5)26-17)30-20-9-7-6-8-10-20)15-25-29-16-18-11-13-19(14-12-18)23(28)31-24(2,3)4/h6-15H,16H2,1-5H3/b25-15+

> <InChI Key_QSARr>
YYJNOYZRYGDPNH-MFKUBSTISA-N

> <Salt_Solvent>
?

> <LogVP>
-7.2495

$$$$
102974
  -INDIGO-08031723152D

 54 55  0  0  0  0  0  0  0  0999 V2000
    0.7507   -2.8013    0.0000 C   0  0  0  0  0  0  0  0  0  0  0  0
    1.9764   -3.8299    0.0000 O   0  0  0  0  0  0  0  0  0  0  0  0
   -0.4749   -3.8299    0.0000 C   0  0  0  0  0  0  0  0  0  0  0  0
   -2.0749   -3.8299    0.0000 C   0  0  0  0  0  0  0  0  0  0  0  0
   -3.1034   -2.6042    0.0000 H   0  0  0  0  0  0  0  0  0  0  0  0
   -2.8751   -5.2155    0.0000 C   0  0  0  0  0  0  0  0  0  0  0  0
   -4.4751   -5.2155    0.0000 C   0  0  0  0  0  0  0  0  0  0  0  0
   -6.0750   -5.2155    0.0000 H   0  0  0  0  0  0  0  0  0  0  0  0
   -5.2749   -6.6010    0.0000 H   0  0  0  0  0  0  0  0  0  0  0  0
   -5.2749   -3.8299    0.0000 H   0  0  0  0  0  0  0  0  0  0  0  0
   -2.0749   -6.6010    0.0000 C   0  0  0  0  0  0  0  0  0  0  0  0
   -2.8751   -7.9868    0.0000 H   0  0  0  0  0  0  0  0  0  0  0  0
   -0.4749   -6.6010    0.0000 C   0  0  0  0  0  0  0  0  0  0  0  0
    0.3249   -7.9868    0.0000 C   0  0  0  0  0  0  0  0  0  0  0  0
    1.1251   -9.3724    0.0000 H   0  0  0  0  0  0  0  0  0  0  0  0
   -0.4749   -9.3724    0.0000 H   0  0  0  0  0  0  0  0  0  0  0  0
    1.9249   -7.9868    0.0000 H   0  0  0  0  0  0  0  0  0  0  0  0
    0.3249   -5.2155    0.0000 C   0  0  0  0  0  0  0  0  0  0  0  0
    1.9249   -5.2155    0.0000 H   0  0  0  0  0  0  0  0  0  0  0  0
    1.0285   -1.2257    0.0000 N   0  0  0  0  0  0  0  0  0  0  0  0
    2.6041   -0.9478    0.0000 N   0  0  0  0  0  0  0  0  0  0  0  0
    3.1514    0.5557    0.0000 H   0  0  0  0  0  0  0  0  0  0  0  0
    3.6326   -2.1735    0.0000 C   0  0  0  0  0  0  0  0  0  0  0  0
    3.0853   -3.6770    0.0000 O   0  0  0  0  0  0  0  0  0  0  0  0
    5.2082   -1.8958    0.0000 C   0  0  0  0  0  0  0  0  0  0  0  0
    5.7555   -0.3922    0.0000 C   0  0  0  0  0  0  0  0  0  0  0  0
    4.7270    0.8334    0.0000 H   0  0  0  0  0  0  0  0  0  0  0  0
    7.3314   -0.1143    0.0000 C   0  0  0  0  0  0  0  0  0  0  0  0
    7.8784    1.3892    0.0000 H   0  0  0  0  0  0  0  0  0  0  0  0
    8.3596   -1.3400    0.0000 C   0  0  0  0  0  0  0  0  0  0  0  0
    9.9354   -1.0622    0.0000 C   0  0  0  0  0  0  0  0  0  0  0  0
   11.0162    0.1175    0.0000 H   0  0  0  0  0  0  0  0  0  0  0  0
    9.8656    0.5364    0.0000 H   0  0  0  0  0  0  0  0  0  0  0  0
   10.9640   -2.2879    0.0000 C   0  0  0  0  0  0  0  0  0  0  0  0
   12.5395   -2.0100    0.0000 H   0  0  0  0  0  0  0  0  0  0  0  0
   11.9922   -3.5135    0.0000 H   0  0  0  0  0  0  0  0  0  0  0  0
   11.5110   -0.7844    0.0000 H   0  0  0  0  0  0  0  0  0  0  0  0
    7.8125   -2.8435    0.0000 C   0  0  0  0  0  0  0  0  0  0  0  0
    8.8410   -4.0691    0.0000 H   0  0  0  0  0  0  0  0  0  0  0  0
    6.2367   -3.1214    0.0000 C   0  0  0  0  0  0  0  0  0  0  0  0
    5.6896   -4.6249    0.0000 H   0  0  0  0  0  0  0  0  0  0  0  0
    0.0000   -0.0001    0.0000 C   0  0  0  0  0  0  0  0  0  0  0  0
   -1.0285    1.2258    0.0000 C   0  0  0  0  0  0  0  0  0  0  0  0
   -2.0570    2.4514    0.0000 H   0  0  0  0  0  0  0  0  0  0  0  0
   -0.7507    2.8014    0.0000 H   0  0  0  0  0  0  0  0  0  0  0  0
   -2.6041    0.9479    0.0000 H   0  0  0  0  0  0  0  0  0  0  0  0
    1.2256    1.0285    0.0000 C   0  0  0  0  0  0  0  0  0  0  0  0
    2.6112    1.8285    0.0000 H   0  0  0  0  0  0  0  0  0  0  0  0
    1.2256    2.6284    0.0000 H   0  0  0  0  0  0  0  0  0  0  0  0
   -0.1599    1.8285    0.0000 H   0  0  0  0  0  0  0  0  0  0  0  0
   -1.0285   -1.2257    0.0000 C   0  0  0  0  0  0  0  0  0  0  0  0
   -1.8284   -2.6113    0.0000 H   0  0  0  0  0  0  0  0  0  0  0  0
   -2.6041   -0.9478    0.0000 H   0  0  0  0  0  0  0  0  0  0  0  0
   -1.5756    0.2778    0.0000 H   0  0  0  0  0  0  0  0  0  0  0  0
  1  2  2  0  0  0  0
  1  3  1  0  0  0  0
  3  4  1  0  0  0  0
  4  5  1  0  0  0  0
  4  6  2  0  0  0  0
  6  7  1  0  0  0  0
  7  8  1  0  0  0  0
  7  9  1  0  0  0  0
  7 10  1  0  0  0  0
  6 11  1  0  0  0  0
 11 12  1  0  0  0  0
 11 13  2  0  0  0  0
 13 14  1  0  0  0  0
 14 15  1  0  0  0  0
 14 16  1  0  0  0  0
 14 17  1  0  0  0  0
 13 18  1  0  0  0  0
 18  3  2  0  0  0  0
 18 19  1  0  0  0  0
  1 20  1  0  0  0  0
 20 21  1  0  0  0  0
 21 22  1  0  0  0  0
 21 23  1  0  0  0  0
 23 24  2  0  0  0  0
 23 25  1  0  0  0  0
 25 26  1  0  0  0  0
 26 27  1  0  0  0  0
 26 28  2  0  0  0  0
 28 29  1  0  0  0  0
 28 30  1  0  0  0  0
 30 31  1  0  0  0  0
 31 32  1  0  0  0  0
 31 33  1  0  0  0  0
 31 34  1  0  0  0  0
 34 35  1  0  0  0  0
 34 36  1  0  0  0  0
 34 37  1  0  0  0  0
 30 38  2  0  0  0  0
 38 39  1  0  0  0  0
 38 40  1  0  0  0  0
 40 25  2  0  0  0  0
 40 41  1  0  0  0  0
 20 42  1  0  0  0  0
 42 43  1  0  0  0  0
 43 44  1  0  0  0  0
 43 45  1  0  0  0  0
 43 46  1  0  0  0  0
 42 47  1  0  0  0  0
 47 48  1  0  0  0  0
 47 49  1  0  0  0  0
 47 50  1  0  0  0  0
 42 51  1  0  0  0  0
 51 52  1  0  0  0  0
 51 53  1  0  0  0  0
 51 54  1  0  0  0  0
M  END
> <ChemID>
102974

> <source_casrn>
112410-23-8

> <CAS>
112410-23-8

> <SMILES>
CCc1ccc(cc1)C(=O)NN(C(=O)c1cc(C)cc(C)c1)C(C)(C)C

> <NAME>
TEBUFENOZIDE

> <preferred_name>
Tebufenozide

> <iupac>
N-tert-butyl-N'-(4-ethylbenzoyl)-3,5-dimethylbenzohydrazide

> <MPID>
27366

> <dsstox_substance_id>
DTXSID4034948

> <Canonical_QSARr>
CCc1ccc(cc1)C(=O)NN(C(=O)c1cc(C)cc(C)c1)C(C)(C)C

> <InChI_Code_QSARr>
InChI=1S/C22H28N2O2/c1-7-17-8-10-18(11-9-17)20(25)23-24(22(4,5)6)21(26)19-13-15(2)12-16(3)14-19/h8-14H,7H2,1-6H3,(H,23,25)

> <InChI Key_QSARr>
QYPNKSZPJQQLRK-UHFFFAOYSA-N

> <Salt_Solvent>
?

> <LogVP>
-7.6478

$$$$
102978
  -INDIGO-08031723152D

 40 42  0  0  0  0  0  0  0  0999 V2000
  -12.6944    0.5531    0.0000 C   0  0  0  0  0  0  0  0  0  0  0  0
  -12.2000    2.0747    0.0000 O   0  0  0  0  0  0  0  0  0  0  0  0
  -14.2595    0.2203    0.0000 O   0  0  0  0  0  0  0  0  0  0  0  0
  -15.3299    1.4094    0.0000 C   0  0  0  0  0  0  0  0  0  0  0  0
  -16.4007    2.5984    0.0000 H   0  0  0  0  0  0  0  0  0  0  0  0
  -16.8950    1.0767    0.0000 H   0  0  0  0  0  0  0  0  0  0  0  0
  -14.8356    2.9311    0.0000 H   0  0  0  0  0  0  0  0  0  0  0  0
  -11.6237   -0.6360    0.0000 C   0  0  0  0  0  0  0  0  0  0  0  0
  -11.4982   -2.2310    0.0000 H   0  0  0  0  0  0  0  0  0  0  0  0
  -12.6628   -1.8526    0.0000 H   0  0  0  0  0  0  0  0  0  0  0  0
  -10.0586   -0.3034    0.0000 S   0  0  0  0  0  0  0  0  0  0  0  0
   -8.9881   -1.4924    0.0000 C   0  0  0  0  0  0  0  0  0  0  0  0
   -9.4825   -3.0141    0.0000 C   0  0  0  0  0  0  0  0  0  0  0  0
  -11.0476   -3.3468    0.0000 Cl  0  0  0  0  0  0  0  0  0  0  0  0
   -8.4118   -4.2031    0.0000 C   0  0  0  0  0  0  0  0  0  0  0  0
   -8.9064   -5.7248    0.0000 H   0  0  0  0  0  0  0  0  0  0  0  0
   -6.8470   -3.8704    0.0000 C   0  0  0  0  0  0  0  0  0  0  0  0
   -5.7762   -5.0595    0.0000 F   0  0  0  0  0  0  0  0  0  0  0  0
   -6.3523   -2.3487    0.0000 C   0  0  0  0  0  0  0  0  0  0  0  0
   -4.7875   -2.0162    0.0000 N   0  0  0  0  0  0  0  0  0  0  0  0
   -4.2929   -0.4945    0.0000 C   0  0  0  0  0  0  0  0  0  0  0  0
   -2.7712    0.0000    0.0000 N   0  0  0  0  0  0  0  0  0  0  0  0
   -2.7712    1.6001    0.0000 N   0  0  0  0  0  0  0  0  0  0  0  0
   -1.3857    2.4001    0.0000 C   0  0  0  0  0  0  0  0  0  0  0  0
   -0.3572    3.6257    0.0000 H   0  0  0  0  0  0  0  0  0  0  0  0
   -2.4141    3.6257    0.0000 H   0  0  0  0  0  0  0  0  0  0  0  0
   -0.0001    1.6001    0.0000 C   0  0  0  0  0  0  0  0  0  0  0  0
    1.5757    1.3221    0.0000 H   0  0  0  0  0  0  0  0  0  0  0  0
    0.5472    3.1035    0.0000 H   0  0  0  0  0  0  0  0  0  0  0  0
   -0.0001    0.0000    0.0000 C   0  0  0  0  0  0  0  0  0  0  0  0
    0.5472   -1.5035    0.0000 H   0  0  0  0  0  0  0  0  0  0  0  0
    1.5757    0.2778    0.0000 H   0  0  0  0  0  0  0  0  0  0  0  0
   -1.3857   -0.8000    0.0000 C   0  0  0  0  0  0  0  0  0  0  0  0
   -2.4141   -2.0257    0.0000 H   0  0  0  0  0  0  0  0  0  0  0  0
   -0.3572   -2.0257    0.0000 H   0  0  0  0  0  0  0  0  0  0  0  0
   -4.2929    2.0944    0.0000 C   0  0  0  0  0  0  0  0  0  0  0  0
   -4.7875    3.6161    0.0000 O   0  0  0  0  0  0  0  0  0  0  0  0
   -5.2334    0.8001    0.0000 S   0  0  0  0  0  0  0  0  0  0  0  0
   -7.4231   -1.1598    0.0000 C   0  0  0  0  0  0  0  0  0  0  0  0
   -6.9287    0.3619    0.0000 H   0  0  0  0  0  0  0  0  0  0  0  0
  1  2  2  0  0  0  0
  1  3  1  0  0  0  0
  3  4  1  0  0  0  0
  4  5  1  0  0  0  0
  4  6  1  0  0  0  0
  4  7  1  0  0  0  0
  1  8  1  0  0  0  0
  8  9  1  0  0  0  0
  8 10  1  0  0  0  0
  8 11  1  0  0  0  0
 11 12  1  0  0  0  0
 12 13  1  0  0  0  0
 13 14  1  0  0  0  0
 13 15  2  0  0  0  0
 15 16  1  0  0  0  0
 15 17  1  0  0  0  0
 17 18  1  0  0  0  0
 17 19  2  0  0  0  0
 19 20  1  0  0  0  0
 20 21  2  0  0  0  0
 21 22  1  0  0  0  0
 22 23  1  0  0  0  0
 23 24  1  0  0  0  0
 24 25  1  0  0  0  0
 24 26  1  0  0  0  0
 24 27  1  0  0  0  0
 27 28  1  0  0  0  0
 27 29  1  0  0  0  0
 27 30  1  0  0  0  0
 30 31  1  0  0  0  0
 30 32  1  0  0  0  0
 30 33  1  0  0  0  0
 33 22  1  0  0  0  0
 33 34  1  0  0  0  0
 33 35  1  0  0  0  0
 23 36  1  0  0  0  0
 36 37  2  0  0  0  0
 36 38  1  0  0  0  0
 38 21  1  0  0  0  0
 19 39  1  0  0  0  0
 39 12  2  0  0  0  0
 39 40  1  0  0  0  0
M  END
> <ChemID>
102978

> <source_casrn>
117337-19-6

> <CAS>
117337-19-6

> <SMILES>
COC(=O)CSc1cc(/N=C2\SC(=O)N3CCCCN3\2)c(F)cc1Cl

> <NAME>
Fluthiacet-methyl

> <preferred_name>
Fluthiacet-methyl

> <iupac>
methyl ({2-chloro-4-fluoro-5-[(Z)-(3-oxotetrahydro[1,3,4]thiadiazolo[3,4-a]pyridazin-1-ylidene)amino]phenyl}sulfanyl)acetate

> <MPID>
27370

> <dsstox_substance_id>
DTXSID2032556

> <Canonical_QSARr>
COC(=O)CSc1cc(N=C2SC(=O)N3CCCCN32)c(F)cc1Cl

> <InChI_Code_QSARr>
InChI=1S/C15H15ClFN3O3S2/c1-23-13(21)8-24-12-7-11(10(17)6-9(12)16)18-14-19-4-2-3-5-20(19)15(22)25-14/h6-7H,2-5,8H2,1H3/b18-14-

> <InChI Key_QSARr>
ZCNQYNHDVRPZIH-JXAWBTAJSA-N

> <Salt_Solvent>
?

> <LogVP>
-8.4802

$$$$
102982
  -INDIGO-08031723152D

 45 47  0  0  0  0  0  0  0  0999 V2000
   13.9017   -3.7123    0.0000 C   0  0  0  0  0  0  0  0  0  0  0  0
   14.9725   -4.9014    0.0000 H   0  0  0  0  0  0  0  0  0  0  0  0
   12.3368   -4.0450    0.0000 C   0  0  0  0  0  0  0  0  0  0  0  0
   11.8423   -5.5667    0.0000 H   0  0  0  0  0  0  0  0  0  0  0  0
   11.2660   -2.8559    0.0000 C   0  0  0  0  0  0  0  0  0  0  0  0
    9.7825   -3.4553    0.0000 H   0  0  0  0  0  0  0  0  0  0  0  0
   11.7605   -1.3343    0.0000 C   0  0  0  0  0  0  0  0  0  0  0  0
   11.1611    0.1492    0.0000 C   0  0  0  0  0  0  0  0  0  0  0  0
   12.2319    1.3383    0.0000 N   0  0  0  0  0  0  0  0  0  0  0  0
   11.4318    2.7239    0.0000 C   0  0  0  0  0  0  0  0  0  0  0  0
   12.0827    4.1855    0.0000 C   0  0  0  0  0  0  0  0  0  0  0  0
   13.6736    4.3527    0.0000 N   0  0  0  0  0  0  0  0  0  0  0  0
   14.3245    5.8145    0.0000 H   0  0  0  0  0  0  0  0  0  0  0  0
   14.6143    3.0584    0.0000 H   0  0  0  0  0  0  0  0  0  0  0  0
   11.1420    5.4800    0.0000 O   0  0  0  0  0  0  0  0  0  0  0  0
    9.8668    2.3912    0.0000 N   0  0  0  0  0  0  0  0  0  0  0  0
    9.6996    0.8001    0.0000 N   0  0  0  0  0  0  0  0  0  0  0  0
    8.3139    0.0000    0.0000 C   0  0  0  0  0  0  0  0  0  0  0  0
    8.3139   -1.6000    0.0000 C   0  0  0  0  0  0  0  0  0  0  0  0
    9.6996   -2.4001    0.0000 H   0  0  0  0  0  0  0  0  0  0  0  0
    6.9281   -2.4001    0.0000 C   0  0  0  0  0  0  0  0  0  0  0  0
    6.9281   -4.0000    0.0000 H   0  0  0  0  0  0  0  0  0  0  0  0
    5.5426   -1.6000    0.0000 C   0  0  0  0  0  0  0  0  0  0  0  0
    4.1569   -2.4001    0.0000 Cl  0  0  0  0  0  0  0  0  0  0  0  0
    5.5426    0.0000    0.0000 C   0  0  0  0  0  0  0  0  0  0  0  0
    4.1569    0.8001    0.0000 C   0  0  0  0  0  0  0  0  0  0  0  0
    4.7692    2.2781    0.0000 H   0  0  0  0  0  0  0  0  0  0  0  0
    3.5446    2.2781    0.0000 H   0  0  0  0  0  0  0  0  0  0  0  0
    2.7711    0.0000    0.0000 O   0  0  0  0  0  0  0  0  0  0  0  0
    1.3857    0.8001    0.0000 C   0  0  0  0  0  0  0  0  0  0  0  0
    1.9980    2.2781    0.0000 H   0  0  0  0  0  0  0  0  0  0  0  0
    0.7734    2.2781    0.0000 H   0  0  0  0  0  0  0  0  0  0  0  0
   -0.0001    0.0000    0.0000 C   0  0  0  0  0  0  0  0  0  0  0  0
   -1.3855    0.8001    0.0000 C   0  0  0  0  0  0  0  0  0  0  0  0
   -2.7713    1.6000    0.0000 F   0  0  0  0  0  0  0  0  0  0  0  0
   -2.7713    0.0000    0.0000 F   0  0  0  0  0  0  0  0  0  0  0  0
   -1.3855    2.4001    0.0000 F   0  0  0  0  0  0  0  0  0  0  0  0
   -0.6123   -1.4782    0.0000 F   0  0  0  0  0  0  0  0  0  0  0  0
    0.6122   -1.4782    0.0000 F   0  0  0  0  0  0  0  0  0  0  0  0
    6.9281    0.8001    0.0000 C   0  0  0  0  0  0  0  0  0  0  0  0
    6.9281    2.4001    0.0000 H   0  0  0  0  0  0  0  0  0  0  0  0
   13.3255   -1.0015    0.0000 C   0  0  0  0  0  0  0  0  0  0  0  0
   13.8200    0.5201    0.0000 H   0  0  0  0  0  0  0  0  0  0  0  0
   14.3962   -2.1906    0.0000 C   0  0  0  0  0  0  0  0  0  0  0  0
   15.9612   -1.8581    0.0000 H   0  0  0  0  0  0  0  0  0  0  0  0
  1  2  1  0  0  0  0
  1  3  1  0  0  0  0
  3  4  1  0  0  0  0
  3  5  2  0  0  0  0
  5  6  1  0  0  0  0
  5  7  1  0  0  0  0
  7  8  1  0  0  0  0
  8  9  2  0  0  0  0
  9 10  1  0  0  0  0
 10 11  1  0  0  0  0
 11 12  1  0  0  0  0
 12 13  1  0  0  0  0
 12 14  1  0  0  0  0
 11 15  2  0  0  0  0
 10 16  2  0  0  0  0
 16 17  1  0  0  0  0
 17  8  1  0  0  0  0
 17 18  1  0  0  0  0
 18 19  1  0  0  0  0
 19 20  1  0  0  0  0
 19 21  2  0  0  0  0
 21 22  1  0  0  0  0
 21 23  1  0  0  0  0
 23 24  1  0  0  0  0
 23 25  2  0  0  0  0
 25 26  1  0  0  0  0
 26 27  1  0  0  0  0
 26 28  1  0  0  0  0
 26 29  1  0  0  0  0
 29 30  1  0  0  0  0
 30 31  1  0  0  0  0
 30 32  1  0  0  0  0
 30 33  1  0  0  0  0
 33 34  1  0  0  0  0
 34 35  1  0  0  0  0
 34 36  1  0  0  0  0
 34 37  1  0  0  0  0
 33 38  1  0  0  0  0
 33 39  1  0  0  0  0
 25 40  1  0  0  0  0
 40 18  2  0  0  0  0
 40 41  1  0  0  0  0
  7 42  2  0  0  0  0
 42 43  1  0  0  0  0
 42 44  1  0  0  0  0
 44  1  2  0  0  0  0
 44 45  1  0  0  0  0
M  END
> <ChemID>
102982

> <source_casrn>
119126-15-7

> <CAS>
119126-15-7

> <SMILES>
NC(=O)c1[n][n](-c2cc(COCC(F)(F)C(F)(F)F)c(Cl)cc2)c([n]1)-c1ccccc1

> <NAME>
Flupoxam

> <preferred_name>
Flupoxam

> <iupac>
1-{4-chloro-3-[(2,2,3,3,3-pentafluoropropoxy)methyl]phenyl}-5-phenyl-1H-1,2,4-triazole-3-carboxamide

> <MPID>
27374

> <dsstox_substance_id>
DTXSID7057943

> <Canonical_QSARr>
NC(=O)c1[n][n](-c2cc(COCC(F)(F)C(F)(F)F)c(Cl)cc2)c([n]1)-c1ccccc1

> <InChI_Code_QSARr>
InChI=1S/C19H14ClF5N4O2/c20-14-7-6-13(8-12(14)9-31-10-18(21,22)19(23,24)25)29-17(11-4-2-1-3-5-11)27-16(28-29)15(26)30/h1-8H,9-10H2,(H2,26,30)

> <InChI Key_QSARr>
AOQMRUTZEYVDIL-UHFFFAOYSA-N

> <Salt_Solvent>
?

> <LogVP>
-6.8239

$$$$
102986
  -INDIGO-08031723152D

 45 47  0  0  0  0  0  0  0  0999 V2000
    3.4722    2.4217    0.0000 C   0  0  0  0  0  0  0  0  0  0  0  0
    4.1228    0.9599    0.0000 O   0  0  0  0  0  0  0  0  0  0  0  0
    4.4125    3.7161    0.0000 N   0  0  0  0  0  0  0  0  0  0  0  0
    3.7619    5.1776    0.0000 H   0  0  0  0  0  0  0  0  0  0  0  0
    6.0037    3.5488    0.0000 C   0  0  0  0  0  0  0  0  0  0  0  0
    6.9443    4.8432    0.0000 N   0  0  0  0  0  0  0  0  0  0  0  0
    8.5355    4.6761    0.0000 C   0  0  0  0  0  0  0  0  0  0  0  0
    9.4761    5.9705    0.0000 O   0  0  0  0  0  0  0  0  0  0  0  0
    8.8252    7.4320    0.0000 C   0  0  0  0  0  0  0  0  0  0  0  0
    9.7656    8.7264    0.0000 H   0  0  0  0  0  0  0  0  0  0  0  0
    8.1744    8.8937    0.0000 H   0  0  0  0  0  0  0  0  0  0  0  0
    7.2340    7.5993    0.0000 H   0  0  0  0  0  0  0  0  0  0  0  0
    9.1864    3.2143    0.0000 C   0  0  0  0  0  0  0  0  0  0  0  0
   10.7776    3.0470    0.0000 H   0  0  0  0  0  0  0  0  0  0  0  0
    8.2458    1.9199    0.0000 C   0  0  0  0  0  0  0  0  0  0  0  0
    8.8967    0.4582    0.0000 O   0  0  0  0  0  0  0  0  0  0  0  0
   10.4879    0.2910    0.0000 C   0  0  0  0  0  0  0  0  0  0  0  0
   11.1388   -1.1707    0.0000 H   0  0  0  0  0  0  0  0  0  0  0  0
   12.0791    0.1237    0.0000 H   0  0  0  0  0  0  0  0  0  0  0  0
    9.5473   -1.0036    0.0000 H   0  0  0  0  0  0  0  0  0  0  0  0
    6.6546    2.0870    0.0000 N   0  0  0  0  0  0  0  0  0  0  0  0
    1.8810    2.5888    0.0000 N   0  0  0  0  0  0  0  0  0  0  0  0
    1.2301    4.0505    0.0000 H   0  0  0  0  0  0  0  0  0  0  0  0
    0.9404    1.2944    0.0000 S   0  0  0  0  0  0  0  0  0  0  0  0
    2.2349    0.3540    0.0000 O   0  0  0  0  0  0  0  0  0  0  0  0
   -0.3539    2.2349    0.0000 O   0  0  0  0  0  0  0  0  0  0  0  0
    0.0001   -0.0000    0.0000 C   0  0  0  0  0  0  0  0  0  0  0  0
    0.4945   -1.5217    0.0000 N   0  0  0  0  0  0  0  0  0  0  0  0
    2.0161   -2.0161    0.0000 C   0  0  0  0  0  0  0  0  0  0  0  0
    3.5379   -2.5106    0.0000 H   0  0  0  0  0  0  0  0  0  0  0  0
    2.3489   -3.5812    0.0000 H   0  0  0  0  0  0  0  0  0  0  0  0
    3.2051   -0.9455    0.0000 H   0  0  0  0  0  0  0  0  0  0  0  0
   -0.8000   -2.4621    0.0000 N   0  0  0  0  0  0  0  0  0  0  0  0
   -2.0943   -1.5217    0.0000 C   0  0  0  0  0  0  0  0  0  0  0  0
   -3.6161   -2.0161    0.0000 H   0  0  0  0  0  0  0  0  0  0  0  0
   -1.5999   -0.0000    0.0000 C   0  0  0  0  0  0  0  0  0  0  0  0
   -2.5405    1.2944    0.0000 C   0  0  0  0  0  0  0  0  0  0  0  0
   -4.1404    1.2944    0.0000 N   0  0  0  0  0  0  0  0  0  0  0  0
   -4.6348    2.8161    0.0000 N   0  0  0  0  0  0  0  0  0  0  0  0
   -6.1567    3.3106    0.0000 C   0  0  0  0  0  0  0  0  0  0  0  0
   -7.6783    3.8050    0.0000 H   0  0  0  0  0  0  0  0  0  0  0  0
   -6.4892    4.8755    0.0000 H   0  0  0  0  0  0  0  0  0  0  0  0
   -7.3457    2.2399    0.0000 H   0  0  0  0  0  0  0  0  0  0  0  0
   -3.3406    3.7566    0.0000 N   0  0  0  0  0  0  0  0  0  0  0  0
   -2.0461    2.8161    0.0000 N   0  0  0  0  0  0  0  0  0  0  0  0
  1  2  2  0  0  0  0
  1  3  1  0  0  0  0
  3  4  1  0  0  0  0
  3  5  1  0  0  0  0
  5  6  1  0  0  0  0
  6  7  2  0  0  0  0
  7  8  1  0  0  0  0
  8  9  1  0  0  0  0
  9 10  1  0  0  0  0
  9 11  1  0  0  0  0
  9 12  1  0  0  0  0
  7 13  1  0  0  0  0
 13 14  1  0  0  0  0
 13 15  2  0  0  0  0
 15 16  1  0  0  0  0
 16 17  1  0  0  0  0
 17 18  1  0  0  0  0
 17 19  1  0  0  0  0
 17 20  1  0  0  0  0
 15 21  1  0  0  0  0
 21  5  2  0  0  0  0
  1 22  1  0  0  0  0
 22 23  1  0  0  0  0
 22 24  1  0  0  0  0
 24 25  2  0  0  0  0
 24 26  2  0  0  0  0
 24 27  1  0  0  0  0
 27 28  1  0  0  0  0
 28 29  1  0  0  0  0
 29 30  1  0  0  0  0
 29 31  1  0  0  0  0
 29 32  1  0  0  0  0
 28 33  1  0  0  0  0
 33 34  2  0  0  0  0
 34 35  1  0  0  0  0
 34 36  1  0  0  0  0
 36 27  2  0  0  0  0
 36 37  1  0  0  0  0
 37 38  2  0  0  0  0
 38 39  1  0  0  0  0
 39 40  1  0  0  0  0
 40 41  1  0  0  0  0
 40 42  1  0  0  0  0
 40 43  1  0  0  0  0
 39 44  1  0  0  0  0
 44 45  2  0  0  0  0
 45 37  1  0  0  0  0
M  END
> <ChemID>
102986

> <source_casrn>
120162-55-2

> <CAS>
120162-55-2

> <SMILES>
C[n]1[n][n]c([n]1)-c1c[n][n](C)c1S(=O)(=O)NC(=O)Nc1[n]c(cc([n]1)OC)OC

> <NAME>
Azimsulfuron

> <preferred_name>
Azimsulfuron

> <iupac>
N-[(4,6-dimethoxypyrimidin-2-yl)carbamoyl]-1-methyl-4-(2-methyl-2H-tetrazol-5-yl)-1H-pyrazole-5-sulfonamide

> <MPID>
27378

> <dsstox_substance_id>
DTXSID8041614

> <Canonical_QSARr>
C[n]1[n][n]c([n]1)-c1c[n][n](C)c1S(=O)(=O)NC(=O)Nc1[n]c(cc([n]1)OC)OC

> <InChI_Code_QSARr>
InChI=1S/C13H16N10O5S/c1-22-11(7(6-14-22)10-18-21-23(2)19-10)29(25,26)20-13(24)17-12-15-8(27-3)5-9(16-12)28-4/h5-6H,1-4H3,(H2,15,16,17,20,24)

> <InChI Key_QSARr>
MAHPNPYYQAIOJN-UHFFFAOYSA-N

> <Salt_Solvent>
?

> <LogVP>
-10.5229

$$$$
102990
  -INDIGO-08031723152D

 30 31  0  0  0  0  0  0  0  0999 V2000
   -0.4944    1.5217    0.0000 N   0  0  0  0  0  0  0  0  0  0  0  0
    0.0000    0.0001    0.0000 C   0  0  0  0  0  0  0  0  0  0  0  0
    1.4617    0.6507    0.0000 C   0  0  0  0  0  0  0  0  0  0  0  0
    2.9233    1.3016    0.0000 H   0  0  0  0  0  0  0  0  0  0  0  0
    2.7560   -0.2897    0.0000 H   0  0  0  0  0  0  0  0  0  0  0  0
    1.6290    2.2420    0.0000 H   0  0  0  0  0  0  0  0  0  0  0  0
    0.8000   -1.3857    0.0000 C   0  0  0  0  0  0  0  0  0  0  0  0
    1.5999   -2.7713    0.0000 H   0  0  0  0  0  0  0  0  0  0  0  0
    0.0000   -2.7713    0.0000 H   0  0  0  0  0  0  0  0  0  0  0  0
    2.4001   -1.3857    0.0000 H   0  0  0  0  0  0  0  0  0  0  0  0
   -1.2944   -0.9404    0.0000 O   0  0  0  0  0  0  0  0  0  0  0  0
   -2.5889    0.0001    0.0000 C   0  0  0  0  0  0  0  0  0  0  0  0
   -3.3889   -1.3857    0.0000 H   0  0  0  0  0  0  0  0  0  0  0  0
   -4.1413    0.3871    0.0000 C   0  0  0  0  0  0  0  0  0  0  0  0
   -4.7407    1.8706    0.0000 O   0  0  0  0  0  0  0  0  0  0  0  0
   -6.3369    1.7589    0.0000 C   0  0  0  0  0  0  0  0  0  0  0  0
   -7.3653    2.9846    0.0000 H   0  0  0  0  0  0  0  0  0  0  0  0
   -6.7240    0.2065    0.0000 C   0  0  0  0  0  0  0  0  0  0  0  0
   -8.2074   -0.3928    0.0000 H   0  0  0  0  0  0  0  0  0  0  0  0
   -5.3671   -0.6414    0.0000 C   0  0  0  0  0  0  0  0  0  0  0  0
   -5.2553   -2.2375    0.0000 H   0  0  0  0  0  0  0  0  0  0  0  0
   -2.0944    1.5217    0.0000 C   0  0  0  0  0  0  0  0  0  0  0  0
   -3.6595    1.8543    0.0000 H   0  0  0  0  0  0  0  0  0  0  0  0
   -1.9272    3.1129    0.0000 H   0  0  0  0  0  0  0  0  0  0  0  0
   -0.0533    3.0598    0.0000 C   0  0  0  0  0  0  0  0  0  0  0  0
    1.4990    3.4468    0.0000 O   0  0  0  0  0  0  0  0  0  0  0  0
   -1.1648    4.2107    0.0000 C   0  0  0  0  0  0  0  0  0  0  0  0
   -0.7239    5.7487    0.0000 H   0  0  0  0  0  0  0  0  0  0  0  0
   -2.2763    5.3616    0.0000 Cl  0  0  0  0  0  0  0  0  0  0  0  0
    0.3876    4.5977    0.0000 Cl  0  0  0  0  0  0  0  0  0  0  0  0
  1  2  1  0  0  0  0
  2  3  1  0  0  0  0
  3  4  1  0  0  0  0
  3  5  1  0  0  0  0
  3  6  1  0  0  0  0
  2  7  1  0  0  0  0
  7  8  1  0  0  0  0
  7  9  1  0  0  0  0
  7 10  1  0  0  0  0
  2 11  1  0  0  0  0
 11 12  1  0  0  0  0
 12 13  1  0  0  0  0
 12 14  1  0  0  0  0
 14 15  1  0  0  0  0
 15 16  1  0  0  0  0
 16 17  1  0  0  0  0
 16 18  2  0  0  0  0
 18 19  1  0  0  0  0
 18 20  1  0  0  0  0
 20 14  2  0  0  0  0
 20 21  1  0  0  0  0
 12 22  1  0  0  0  0
 22  1  1  0  0  0  0
 22 23  1  0  0  0  0
 22 24  1  0  0  0  0
  1 25  1  0  0  0  0
 25 26  2  0  0  0  0
 25 27  1  0  0  0  0
 27 28  1  0  0  0  0
 27 29  1  0  0  0  0
 27 30  1  0  0  0  0
M  END
> <ChemID>
102990

> <source_casrn>
121776-33-8

> <CAS>
121776-33-8

> <SMILES>
CC1(C)OC(CN1C(=O)C(Cl)Cl)c1ccco1

> <NAME>
Furilazole

> <preferred_name>
Furilazole

> <iupac>
2,2-dichloro-1-[5-(furan-2-yl)-2,2-dimethyl-1,3-oxazolidin-3-yl]ethanone

> <MPID>
27382

> <dsstox_substance_id>
DTXSID4041999

> <Canonical_QSARr>
CC1(C)OC(CN1C(=O)C(Cl)Cl)c1ccco1

> <InChI_Code_QSARr>
InChI=1S/C11H13Cl2NO3/c1-11(2)14(10(15)9(12)13)6-8(17-11)7-4-3-5-16-7/h3-5,8-9H,6H2,1-2H3

> <InChI Key_QSARr>
MCNOFYBITGAAGM-UHFFFAOYSA-N

> <Salt_Solvent>
?

> <LogVP>
-7.3054

$$$$
102995
  -INDIGO-08031723152D

 28 30  0  0  0  0  0  0  0  0999 V2000
    1.3856    0.8000    0.0000 C   0  0  0  0  0  0  0  0  0  0  0  0
    2.7712    0.0000    0.0000 O   0  0  0  0  0  0  0  0  0  0  0  0
    4.3470    0.2779    0.0000 C   0  0  0  0  0  0  0  0  0  0  0  0
    4.8943    1.7814    0.0000 C   0  0  0  0  0  0  0  0  0  0  0  0
    3.8656    3.0070    0.0000 H   0  0  0  0  0  0  0  0  0  0  0  0
    6.4698    2.0592    0.0000 C   0  0  0  0  0  0  0  0  0  0  0  0
    7.0172    3.5627    0.0000 H   0  0  0  0  0  0  0  0  0  0  0  0
    7.4983    0.8335    0.0000 C   0  0  0  0  0  0  0  0  0  0  0  0
    9.0740    1.1113    0.0000 F   0  0  0  0  0  0  0  0  0  0  0  0
    6.9512   -0.6700    0.0000 C   0  0  0  0  0  0  0  0  0  0  0  0
    7.9796   -1.8957    0.0000 H   0  0  0  0  0  0  0  0  0  0  0  0
    5.3754   -0.9478    0.0000 C   0  0  0  0  0  0  0  0  0  0  0  0
    4.8283   -2.4514    0.0000 H   0  0  0  0  0  0  0  0  0  0  0  0
    0.0000    0.0000    0.0000 C   0  0  0  0  0  0  0  0  0  0  0  0
   -1.3856    0.8000    0.0000 C   0  0  0  0  0  0  0  0  0  0  0  0
   -2.7713    0.0000    0.0000 C   0  0  0  0  0  0  0  0  0  0  0  0
   -4.1569    0.8000    0.0000 H   0  0  0  0  0  0  0  0  0  0  0  0
   -2.7713   -1.6000    0.0000 C   0  0  0  0  0  0  0  0  0  0  0  0
   -1.3856   -2.4001    0.0000 C   0  0  0  0  0  0  0  0  0  0  0  0
   -1.3856   -4.0000    0.0000 H   0  0  0  0  0  0  0  0  0  0  0  0
    0.0000   -1.6000    0.0000 C   0  0  0  0  0  0  0  0  0  0  0  0
    1.3856   -2.4001    0.0000 Cl  0  0  0  0  0  0  0  0  0  0  0  0
   -4.1569   -2.4001    0.0000 Cl  0  0  0  0  0  0  0  0  0  0  0  0
   -1.3856    2.4000    0.0000 N   0  0  0  0  0  0  0  0  0  0  0  0
    0.0000    3.2001    0.0000 C   0  0  0  0  0  0  0  0  0  0  0  0
    0.0000    4.8000    0.0000 H   0  0  0  0  0  0  0  0  0  0  0  0
    1.3856    2.4000    0.0000 C   0  0  0  0  0  0  0  0  0  0  0  0
    2.7712    3.2001    0.0000 H   0  0  0  0  0  0  0  0  0  0  0  0
  1  2  1  0  0  0  0
  2  3  1  0  0  0  0
  3  4  1  0  0  0  0
  4  5  1  0  0  0  0
  4  6  2  0  0  0  0
  6  7  1  0  0  0  0
  6  8  1  0  0  0  0
  8  9  1  0  0  0  0
  8 10  2  0  0  0  0
 10 11  1  0  0  0  0
 10 12  1  0  0  0  0
 12  3  2  0  0  0  0
 12 13  1  0  0  0  0
  1 14  1  0  0  0  0
 14 15  1  0  0  0  0
 15 16  2  0  0  0  0
 16 17  1  0  0  0  0
 16 18  1  0  0  0  0
 18 19  2  0  0  0  0
 19 20  1  0  0  0  0
 19 21  1  0  0  0  0
 21 14  2  0  0  0  0
 21 22  1  0  0  0  0
 18 23  1  0  0  0  0
 15 24  1  0  0  0  0
 24 25  2  0  0  0  0
 25 26  1  0  0  0  0
 25 27  1  0  0  0  0
 27  1  2  0  0  0  0
 27 28  1  0  0  0  0
M  END
> <ChemID>
102995

> <source_casrn>
124495-18-7

> <CAS>
124495-18-7

> <SMILES>
Fc1ccc(cc1)Oc1cc[n]c2cc(Cl)cc(Cl)c21

> <NAME>
Quinoline, 5,7-dichloro-4-(4-fluorophenoxy)-

> <preferred_name>
Quinoxyfen

> <iupac>
5,7-dichloro-4-(4-fluorophenoxy)quinoline

> <MPID>
27386

> <dsstox_substance_id>
DTXSID2034881

> <Canonical_QSARr>
Fc1ccc(cc1)Oc1cc[n]c2cc(Cl)cc(Cl)c21

> <InChI_Code_QSARr>
InChI=1S/C15H8Cl2FNO/c16-9-7-12(17)15-13(8-9)19-6-5-14(15)20-11-3-1-10(18)2-4-11/h1-8H

> <InChI Key_QSARr>
WRPIRSINYZBGPK-UHFFFAOYSA-N

> <Salt_Solvent>
?

> <LogVP>
-6.8239

$$$$
102999
  -INDIGO-08031723152D

 45 46  0  0  0  0  0  0  0  0999 V2000
   -1.3855    4.0001    0.0000 C   0  0  0  0  0  0  0  0  0  0  0  0
   -1.3855    5.6000    0.0000 H   0  0  0  0  0  0  0  0  0  0  0  0
   -2.7713    4.8000    0.0000 H   0  0  0  0  0  0  0  0  0  0  0  0
   -0.0001    4.8000    0.0000 H   0  0  0  0  0  0  0  0  0  0  0  0
   -1.3855    2.3999    0.0000 C   0  0  0  0  0  0  0  0  0  0  0  0
   -2.3597    1.1307    0.0000 H   0  0  0  0  0  0  0  0  0  0  0  0
   -2.9720    2.1911    0.0000 H   0  0  0  0  0  0  0  0  0  0  0  0
   -0.0001    1.6000    0.0000 O   0  0  0  0  0  0  0  0  0  0  0  0
   -0.0001    0.0000    0.0000 C   0  0  0  0  0  0  0  0  0  0  0  0
   -1.3855   -0.8000    0.0000 C   0  0  0  0  0  0  0  0  0  0  0  0
   -2.7713    0.0000    0.0000 H   0  0  0  0  0  0  0  0  0  0  0  0
   -1.3855   -2.4001    0.0000 C   0  0  0  0  0  0  0  0  0  0  0  0
   -2.7713   -3.2000    0.0000 H   0  0  0  0  0  0  0  0  0  0  0  0
   -0.0001   -3.2000    0.0000 C   0  0  0  0  0  0  0  0  0  0  0  0
   -0.0001   -4.8000    0.0000 H   0  0  0  0  0  0  0  0  0  0  0  0
    1.3857   -2.4001    0.0000 C   0  0  0  0  0  0  0  0  0  0  0  0
    2.7711   -3.2000    0.0000 H   0  0  0  0  0  0  0  0  0  0  0  0
    1.3857   -0.8000    0.0000 C   0  0  0  0  0  0  0  0  0  0  0  0
    2.7711    0.0000    0.0000 O   0  0  0  0  0  0  0  0  0  0  0  0
    4.1569   -0.8000    0.0000 S   0  0  0  0  0  0  0  0  0  0  0  0
    5.5426   -1.5999    0.0000 N   0  0  0  0  0  0  0  0  0  0  0  0
    5.5426   -3.2000    0.0000 H   0  0  0  0  0  0  0  0  0  0  0  0
    6.9281   -0.8000    0.0000 C   0  0  0  0  0  0  0  0  0  0  0  0
    8.3139   -1.5999    0.0000 N   0  0  0  0  0  0  0  0  0  0  0  0
    9.6996   -0.8000    0.0000 C   0  0  0  0  0  0  0  0  0  0  0  0
   11.0851   -1.5999    0.0000 N   0  0  0  0  0  0  0  0  0  0  0  0
   12.4708   -0.8000    0.0000 C   0  0  0  0  0  0  0  0  0  0  0  0
   13.8563   -1.5999    0.0000 O   0  0  0  0  0  0  0  0  0  0  0  0
   13.8563   -3.2000    0.0000 C   0  0  0  0  0  0  0  0  0  0  0  0
   15.2421   -4.0000    0.0000 H   0  0  0  0  0  0  0  0  0  0  0  0
   13.8563   -4.8000    0.0000 H   0  0  0  0  0  0  0  0  0  0  0  0
   12.4708   -4.0000    0.0000 H   0  0  0  0  0  0  0  0  0  0  0  0
   12.4708    0.8000    0.0000 C   0  0  0  0  0  0  0  0  0  0  0  0
   13.8563    1.6000    0.0000 H   0  0  0  0  0  0  0  0  0  0  0  0
   11.0851    1.6000    0.0000 C   0  0  0  0  0  0  0  0  0  0  0  0
   11.0851    3.2001    0.0000 O   0  0  0  0  0  0  0  0  0  0  0  0
   12.4708    4.0001    0.0000 C   0  0  0  0  0  0  0  0  0  0  0  0
   12.4708    5.6000    0.0000 H   0  0  0  0  0  0  0  0  0  0  0  0
   13.8563    4.8000    0.0000 H   0  0  0  0  0  0  0  0  0  0  0  0
   11.0851    4.8000    0.0000 H   0  0  0  0  0  0  0  0  0  0  0  0
    9.6996    0.8000    0.0000 N   0  0  0  0  0  0  0  0  0  0  0  0
    6.9281    0.8000    0.0000 O   0  0  0  0  0  0  0  0  0  0  0  0
    8.3139    1.6000    0.0000 H   0  0  0  0  0  0  0  0  0  0  0  0
    4.9571    0.5856    0.0000 O   0  0  0  0  0  0  0  0  0  0  0  0
    3.3570   -2.1857    0.0000 O   0  0  0  0  0  0  0  0  0  0  0  0
  1  2  1  0  0  0  0
  1  3  1  0  0  0  0
  1  4  1  0  0  0  0
  1  5  1  0  0  0  0
  5  6  1  0  0  0  0
  5  7  1  0  0  0  0
  5  8  1  0  0  0  0
  8  9  1  0  0  0  0
  9 10  1  0  0  0  0
 10 11  1  0  0  0  0
 10 12  2  0  0  0  0
 12 13  1  0  0  0  0
 12 14  1  0  0  0  0
 14 15  1  0  0  0  0
 14 16  2  0  0  0  0
 16 17  1  0  0  0  0
 16 18  1  0  0  0  0
 18  9  2  0  0  0  0
 18 19  1  0  0  0  0
 19 20  1  0  0  0  0
 20 21  1  0  0  0  0
 21 22  1  0  0  0  0
 21 23  1  0  0  0  0
 23 24  2  0  0  0  0
 24 25  1  0  0  0  0
 25 26  1  0  0  0  0
 26 27  2  0  0  0  0
 27 28  1  0  0  0  0
 28 29  1  0  0  0  0
 29 30  1  0  0  0  0
 29 31  1  0  0  0  0
 29 32  1  0  0  0  0
 27 33  1  0  0  0  0
 33 34  1  0  0  0  0
 33 35  2  0  0  0  0
 35 36  1  0  0  0  0
 36 37  1  0  0  0  0
 37 38  1  0  0  0  0
 37 39  1  0  0  0  0
 37 40  1  0  0  0  0
 35 41  1  0  0  0  0
 41 25  2  0  0  0  0
 23 42  1  0  0  0  0
 42 43  1  0  0  0  0
 20 44  2  0  0  0  0
 20 45  2  0  0  0  0
M  END
> <ChemID>
102999

> <source_casrn>
126801-58-9

> <CAS>
126801-58-9

> <SMILES>
CCOc1ccccc1OS(=O)(=O)NC(O)=Nc1[n]c(cc([n]1)OC)OC

> <NAME>
Ethoxysulfuron

> <preferred_name>
Ethoxysulfuron

> <iupac>
2-ethoxyphenyl [(4,6-dimethoxypyrimidin-2-yl)carbamoyl]sulfamate

> <MPID>
27390

> <dsstox_substance_id>
DTXSID1057951

> <Canonical_QSARr>
CCOc1ccccc1OS(=O)(=O)NC(O)=Nc1[n]c(cc([n]1)OC)OC

> <InChI_Code_QSARr>
InChI=1S/C15H18N4O7S/c1-4-25-10-7-5-6-8-11(10)26-27(21,22)19-15(20)18-14-16-12(23-2)9-13(17-14)24-3/h5-9H,4H2,1-3H3,(H2,16,17,18,19,20)

> <InChI Key_QSARr>
UWVKRNOCDUPIDM-UHFFFAOYSA-N

> <Salt_Solvent>
?

> <LogVP>
-6.3054

$$$$
103004
  -INDIGO-08031723152D

 46 49  0  0  0  0  0  0  0  0999 V2000
    2.5747    0.2706    0.0000 N   0  0  0  0  0  0  0  0  0  0  0  0
    2.2419   -1.2944    0.0000 C   0  0  0  0  0  0  0  0  0  0  0  0
    3.3125   -2.4835    0.0000 O   0  0  0  0  0  0  0  0  0  0  0  0
    0.6508   -1.4617    0.0000 O   0  0  0  0  0  0  0  0  0  0  0  0
    0.0001    0.0000    0.0000 C   0  0  0  0  0  0  0  0  0  0  0  0
   -0.9404    1.2944    0.0000 C   0  0  0  0  0  0  0  0  0  0  0  0
   -2.0915    2.4059    0.0000 H   0  0  0  0  0  0  0  0  0  0  0  0
   -0.5535    2.8469    0.0000 H   0  0  0  0  0  0  0  0  0  0  0  0
    0.4976    1.9958    0.0000 H   0  0  0  0  0  0  0  0  0  0  0  0
   -1.3857   -0.7999    0.0000 C   0  0  0  0  0  0  0  0  0  0  0  0
   -1.3857   -2.4000    0.0000 C   0  0  0  0  0  0  0  0  0  0  0  0
    0.0001   -3.2000    0.0000 H   0  0  0  0  0  0  0  0  0  0  0  0
   -2.7712   -3.2000    0.0000 C   0  0  0  0  0  0  0  0  0  0  0  0
   -2.7712   -4.8000    0.0000 H   0  0  0  0  0  0  0  0  0  0  0  0
   -4.1570   -2.4000    0.0000 C   0  0  0  0  0  0  0  0  0  0  0  0
   -5.5425   -3.2000    0.0000 O   0  0  0  0  0  0  0  0  0  0  0  0
   -7.1181   -2.9222    0.0000 C   0  0  0  0  0  0  0  0  0  0  0  0
   -8.1467   -4.1479    0.0000 C   0  0  0  0  0  0  0  0  0  0  0  0
   -7.5994   -5.6513    0.0000 H   0  0  0  0  0  0  0  0  0  0  0  0
   -9.7224   -3.8700    0.0000 C   0  0  0  0  0  0  0  0  0  0  0  0
  -10.7510   -5.0957    0.0000 H   0  0  0  0  0  0  0  0  0  0  0  0
  -10.2697   -2.3665    0.0000 C   0  0  0  0  0  0  0  0  0  0  0  0
  -11.8453   -2.0887    0.0000 H   0  0  0  0  0  0  0  0  0  0  0  0
   -9.2411   -1.1409    0.0000 C   0  0  0  0  0  0  0  0  0  0  0  0
   -9.7884    0.3627    0.0000 H   0  0  0  0  0  0  0  0  0  0  0  0
   -7.6654   -1.4186    0.0000 C   0  0  0  0  0  0  0  0  0  0  0  0
   -6.6371   -0.1929    0.0000 H   0  0  0  0  0  0  0  0  0  0  0  0
   -4.1570   -0.7999    0.0000 C   0  0  0  0  0  0  0  0  0  0  0  0
   -5.5425    0.0000    0.0000 H   0  0  0  0  0  0  0  0  0  0  0  0
   -2.7712    0.0000    0.0000 C   0  0  0  0  0  0  0  0  0  0  0  0
   -2.7712    1.5999    0.0000 H   0  0  0  0  0  0  0  0  0  0  0  0
    1.1892    1.0706    0.0000 C   0  0  0  0  0  0  0  0  0  0  0  0
    1.3008    2.6667    0.0000 O   0  0  0  0  0  0  0  0  0  0  0  0
    4.0364    0.9214    0.0000 N   0  0  0  0  0  0  0  0  0  0  0  0
    4.2034    2.5126    0.0000 H   0  0  0  0  0  0  0  0  0  0  0  0
    5.4744    0.2199    0.0000 C   0  0  0  0  0  0  0  0  0  0  0  0
    6.8008    1.1147    0.0000 C   0  0  0  0  0  0  0  0  0  0  0  0
    6.6892    2.7109    0.0000 H   0  0  0  0  0  0  0  0  0  0  0  0
    8.2391    0.4133    0.0000 C   0  0  0  0  0  0  0  0  0  0  0  0
    9.5655    1.3080    0.0000 H   0  0  0  0  0  0  0  0  0  0  0  0
    8.3507   -1.1827    0.0000 C   0  0  0  0  0  0  0  0  0  0  0  0
    9.7886   -1.8842    0.0000 H   0  0  0  0  0  0  0  0  0  0  0  0
    7.0243   -2.0775    0.0000 C   0  0  0  0  0  0  0  0  0  0  0  0
    7.1358   -3.6735    0.0000 H   0  0  0  0  0  0  0  0  0  0  0  0
    5.5860   -1.3761    0.0000 C   0  0  0  0  0  0  0  0  0  0  0  0
    4.2596   -2.2708    0.0000 H   0  0  0  0  0  0  0  0  0  0  0  0
  1  2  1  0  0  0  0
  2  3  2  0  0  0  0
  2  4  1  0  0  0  0
  4  5  1  0  0  0  0
  5  6  1  0  0  0  0
  6  7  1  0  0  0  0
  6  8  1  0  0  0  0
  6  9  1  0  0  0  0
  5 10  1  0  0  0  0
 10 11  1  0  0  0  0
 11 12  1  0  0  0  0
 11 13  2  0  0  0  0
 13 14  1  0  0  0  0
 13 15  1  0  0  0  0
 15 16  1  0  0  0  0
 16 17  1  0  0  0  0
 17 18  1  0  0  0  0
 18 19  1  0  0  0  0
 18 20  2  0  0  0  0
 20 21  1  0  0  0  0
 20 22  1  0  0  0  0
 22 23  1  0  0  0  0
 22 24  2  0  0  0  0
 24 25  1  0  0  0  0
 24 26  1  0  0  0  0
 26 17  2  0  0  0  0
 26 27  1  0  0  0  0
 15 28  2  0  0  0  0
 28 29  1  0  0  0  0
 28 30  1  0  0  0  0
 30 10  2  0  0  0  0
 30 31  1  0  0  0  0
  5 32  1  0  0  0  0
 32  1  1  0  0  0  0
 32 33  2  0  0  0  0
  1 34  1  0  0  0  0
 34 35  1  0  0  0  0
 34 36  1  0  0  0  0
 36 37  1  0  0  0  0
 37 38  1  0  0  0  0
 37 39  2  0  0  0  0
 39 40  1  0  0  0  0
 39 41  1  0  0  0  0
 41 42  1  0  0  0  0
 41 43  2  0  0  0  0
 43 44  1  0  0  0  0
 43 45  1  0  0  0  0
 45 36  2  0  0  0  0
 45 46  1  0  0  0  0
M  END
> <ChemID>
103004

> <source_casrn>
131807-57-3

> <CAS>
131807-57-3

> <SMILES>
CC1(OC(=O)N(Nc2ccccc2)C1=O)c1ccc(cc1)Oc1ccccc1

> <NAME>
Famoxadone

> <preferred_name>
Famoxadone

> <iupac>
5-methyl-5-(4-phenoxyphenyl)-3-(phenylamino)-1,3-oxazolidine-2,4-dione

> <MPID>
27394

> <dsstox_substance_id>
DTXSID8034588

> <Canonical_QSARr>
CC1(OC(=O)N(Nc2ccccc2)C1=O)c1ccc(cc1)Oc1ccccc1

> <InChI_Code_QSARr>
InChI=1S/C22H18N2O4/c1-22(16-12-14-19(15-13-16)27-18-10-6-3-7-11-18)20(25)24(21(26)28-22)23-17-8-4-2-5-9-17/h2-15,23H,1H3

> <InChI Key_QSARr>
PCCSBWNGDMYFCW-UHFFFAOYSA-N

> <Salt_Solvent>
?

> <LogVP>
-8.3188

$$$$
103008
  -INDIGO-08031723152D

 19 20  0  0  0  0  0  0  0  0999 V2000
   -1.3857    2.4000    0.0000 O   0  0  0  0  0  0  0  0  0  0  0  0
   -1.3857    0.8000    0.0000 C   0  0  0  0  0  0  0  0  0  0  0  0
    0.0001    0.0000    0.0000 C   0  0  0  0  0  0  0  0  0  0  0  0
    1.3857    0.8000    0.0000 C   0  0  0  0  0  0  0  0  0  0  0  0
    2.7713    0.0000    0.0000 C   0  0  0  0  0  0  0  0  0  0  0  0
    3.9604    1.0706    0.0000 N   0  0  0  0  0  0  0  0  0  0  0  0
    3.3096    2.5323    0.0000 N   0  0  0  0  0  0  0  0  0  0  0  0
    1.7182    2.3650    0.0000 S   0  0  0  0  0  0  0  0  0  0  0  0
    2.7713   -1.6000    0.0000 C   0  0  0  0  0  0  0  0  0  0  0  0
    4.1569   -2.4000    0.0000 H   0  0  0  0  0  0  0  0  0  0  0  0
    1.3857   -2.4000    0.0000 C   0  0  0  0  0  0  0  0  0  0  0  0
    1.3857   -4.0000    0.0000 H   0  0  0  0  0  0  0  0  0  0  0  0
    0.0001   -1.6000    0.0000 C   0  0  0  0  0  0  0  0  0  0  0  0
   -1.3857   -2.4000    0.0000 H   0  0  0  0  0  0  0  0  0  0  0  0
   -2.7713    0.0000    0.0000 S   0  0  0  0  0  0  0  0  0  0  0  0
   -4.1569    0.8000    0.0000 C   0  0  0  0  0  0  0  0  0  0  0  0
   -5.5426    1.6000    0.0000 H   0  0  0  0  0  0  0  0  0  0  0  0
   -5.5426    0.0000    0.0000 H   0  0  0  0  0  0  0  0  0  0  0  0
   -4.1569    2.4000    0.0000 H   0  0  0  0  0  0  0  0  0  0  0  0
  1  2  2  0  0  0  0
  2  3  1  0  0  0  0
  3  4  2  0  0  0  0
  4  5  1  0  0  0  0
  5  6  1  0  0  0  0
  6  7  2  0  0  0  0
  7  8  1  0  0  0  0
  8  4  1  0  0  0  0
  5  9  2  0  0  0  0
  9 10  1  0  0  0  0
  9 11  1  0  0  0  0
 11 12  1  0  0  0  0
 11 13  2  0  0  0  0
 13  3  1  0  0  0  0
 13 14  1  0  0  0  0
  2 15  1  0  0  0  0
 15 16  1  0  0  0  0
 16 17  1  0  0  0  0
 16 18  1  0  0  0  0
 16 19  1  0  0  0  0
M  END
> <ChemID>
103008

> <source_casrn>
135158-54-2

> <CAS>
135158-54-2

> <SMILES>
CSC(=O)c1cccc2[n][n][s]c12

> <NAME>
CGA 245704

> <preferred_name>
Acibenzolar-S-methyl

> <iupac>
S-methyl 1,2,3-benzothiadiazole-7-carbothioate

> <MPID>
27398

> <dsstox_substance_id>
DTXSID1032519

> <Canonical_QSARr>
CSC(=O)c1cccc2[n][n][s]c12

> <InChI_Code_QSARr>
InChI=1S/C8H6N2OS2/c1-12-8(11)5-3-2-4-6-7(5)13-10-9-6/h2-4H,1H3

> <InChI Key_QSARr>
UELITFHSCLAHKR-UHFFFAOYSA-N

> <Salt_Solvent>
?

> <LogVP>
-5.4815

$$$$
103012
  -INDIGO-08031723152D

 48 50  0  0  0  0  0  0  0  0999 V2000
  -13.8563    1.6000    0.0000 C   0  0  0  0  0  0  0  0  0  0  0  0
  -13.8563    3.2000    0.0000 H   0  0  0  0  0  0  0  0  0  0  0  0
  -15.2420    2.4000    0.0000 H   0  0  0  0  0  0  0  0  0  0  0  0
  -12.4707    2.4000    0.0000 H   0  0  0  0  0  0  0  0  0  0  0  0
  -12.4707    0.8001    0.0000 O   0  0  0  0  0  0  0  0  0  0  0  0
  -12.4707   -0.8000    0.0000 C   0  0  0  0  0  0  0  0  0  0  0  0
  -13.8563   -1.6000    0.0000 C   0  0  0  0  0  0  0  0  0  0  0  0
  -15.2420   -0.8000    0.0000 H   0  0  0  0  0  0  0  0  0  0  0  0
  -13.8563   -3.2000    0.0000 C   0  0  0  0  0  0  0  0  0  0  0  0
  -15.2420   -3.9999    0.0000 O   0  0  0  0  0  0  0  0  0  0  0  0
  -15.2420   -5.6000    0.0000 C   0  0  0  0  0  0  0  0  0  0  0  0
  -16.6277   -6.4000    0.0000 H   0  0  0  0  0  0  0  0  0  0  0  0
  -15.2420   -7.2000    0.0000 H   0  0  0  0  0  0  0  0  0  0  0  0
  -13.8563   -6.4000    0.0000 H   0  0  0  0  0  0  0  0  0  0  0  0
  -12.4707   -3.9999    0.0000 N   0  0  0  0  0  0  0  0  0  0  0  0
  -11.0850   -3.2000    0.0000 C   0  0  0  0  0  0  0  0  0  0  0  0
   -9.6996   -3.9999    0.0000 N   0  0  0  0  0  0  0  0  0  0  0  0
   -8.3139   -3.2000    0.0000 C   0  0  0  0  0  0  0  0  0  0  0  0
   -6.9282   -3.9999    0.0000 N   0  0  0  0  0  0  0  0  0  0  0  0
   -6.9282   -5.6000    0.0000 H   0  0  0  0  0  0  0  0  0  0  0  0
   -5.5426   -3.2000    0.0000 S   0  0  0  0  0  0  0  0  0  0  0  0
   -4.1569   -2.4000    0.0000 N   0  0  0  0  0  0  0  0  0  0  0  0
   -4.1569   -0.8000    0.0000 H   0  0  0  0  0  0  0  0  0  0  0  0
   -2.7712   -3.2000    0.0000 C   0  0  0  0  0  0  0  0  0  0  0  0
   -2.7712   -4.8001    0.0000 C   0  0  0  0  0  0  0  0  0  0  0  0
   -4.1569   -5.6000    0.0000 H   0  0  0  0  0  0  0  0  0  0  0  0
   -1.3855   -5.6000    0.0000 C   0  0  0  0  0  0  0  0  0  0  0  0
   -1.3855   -7.2000    0.0000 H   0  0  0  0  0  0  0  0  0  0  0  0
    0.0001   -4.8001    0.0000 C   0  0  0  0  0  0  0  0  0  0  0  0
    1.3855   -5.6000    0.0000 H   0  0  0  0  0  0  0  0  0  0  0  0
    0.0001   -3.2000    0.0000 C   0  0  0  0  0  0  0  0  0  0  0  0
    1.3855   -2.4000    0.0000 H   0  0  0  0  0  0  0  0  0  0  0  0
   -1.3855   -2.4000    0.0000 C   0  0  0  0  0  0  0  0  0  0  0  0
   -1.3855   -0.8000    0.0000 C   0  0  0  0  0  0  0  0  0  0  0  0
    0.0001   -0.0001    0.0000 C   0  0  0  0  0  0  0  0  0  0  0  0
    1.0284   -1.2257    0.0000 H   0  0  0  0  0  0  0  0  0  0  0  0
    1.0284    1.2257    0.0000 C   0  0  0  0  0  0  0  0  0  0  0  0
    2.4141    0.4257    0.0000 H   0  0  0  0  0  0  0  0  0  0  0  0
    1.5758    2.7292    0.0000 H   0  0  0  0  0  0  0  0  0  0  0  0
   -0.5473    1.5036    0.0000 C   0  0  0  0  0  0  0  0  0  0  0  0
   -0.5473    3.1035    0.0000 H   0  0  0  0  0  0  0  0  0  0  0  0
   -2.1230    1.2257    0.0000 H   0  0  0  0  0  0  0  0  0  0  0  0
   -2.7712   -0.0001    0.0000 O   0  0  0  0  0  0  0  0  0  0  0  0
   -6.3425   -1.8144    0.0000 O   0  0  0  0  0  0  0  0  0  0  0  0
   -4.7427   -4.5857    0.0000 O   0  0  0  0  0  0  0  0  0  0  0  0
   -8.3139   -1.6000    0.0000 O   0  0  0  0  0  0  0  0  0  0  0  0
   -9.6996   -0.8000    0.0000 H   0  0  0  0  0  0  0  0  0  0  0  0
  -11.0850   -1.6000    0.0000 N   0  0  0  0  0  0  0  0  0  0  0  0
  1  2  1  0  0  0  0
  1  3  1  0  0  0  0
  1  4  1  0  0  0  0
  1  5  1  0  0  0  0
  5  6  1  0  0  0  0
  6  7  1  0  0  0  0
  7  8  1  0  0  0  0
  7  9  2  0  0  0  0
  9 10  1  0  0  0  0
 10 11  1  0  0  0  0
 11 12  1  0  0  0  0
 11 13  1  0  0  0  0
 11 14  1  0  0  0  0
  9 15  1  0  0  0  0
 15 16  2  0  0  0  0
 16 17  1  0  0  0  0
 17 18  2  0  0  0  0
 18 19  1  0  0  0  0
 19 20  1  0  0  0  0
 19 21  1  0  0  0  0
 21 22  1  0  0  0  0
 22 23  1  0  0  0  0
 22 24  1  0  0  0  0
 24 25  1  0  0  0  0
 25 26  1  0  0  0  0
 25 27  2  0  0  0  0
 27 28  1  0  0  0  0
 27 29  1  0  0  0  0
 29 30  1  0  0  0  0
 29 31  2  0  0  0  0
 31 32  1  0  0  0  0
 31 33  1  0  0  0  0
 33 24  2  0  0  0  0
 33 34  1  0  0  0  0
 34 35  1  0  0  0  0
 35 36  1  0  0  0  0
 35 37  1  0  0  0  0
 37 38  1  0  0  0  0
 37 39  1  0  0  0  0
 37 40  1  0  0  0  0
 40 35  1  0  0  0  0
 40 41  1  0  0  0  0
 40 42  1  0  0  0  0
 34 43  2  0  0  0  0
 21 44  2  0  0  0  0
 21 45  2  0  0  0  0
 18 46  1  0  0  0  0
 46 47  1  0  0  0  0
 16 48  1  0  0  0  0
 48  6  2  0  0  0  0
M  END
> <ChemID>
103012

> <source_casrn>
136849-15-5

> <CAS>
136849-15-5

> <SMILES>
COc1cc([n]c(N=C(O)NS(=O)(=O)Nc2ccccc2C(=O)C2CC2)[n]1)OC

> <NAME>
Cyclosulfamuron

> <preferred_name>
Cyclosulfamuron

> <iupac>
1-(2-(cyclopropylcarbonyl)anilinosulfonyl)-3-(4,6-dimethoxypyrimidin-2-yl)urea 1-(2-(cyclopropylcarbonyl)anilinosulfonyl)-3-(4,6-dimethoxypyrimidin-2-yl)urea

> <MPID>
27402

> <dsstox_substance_id>
DTXSID0057966

> <Canonical_QSARr>
COc1cc([n]c(N=C(O)NS(=O)(=O)Nc2ccccc2C(=O)C2CC2)[n]1)OC

> <InChI_Code_QSARr>
InChI=1S/C17H19N5O6S/c1-27-13-9-14(28-2)19-16(18-13)20-17(24)22-29(25,26)21-12-6-4-3-5-11(12)15(23)10-7-8-10/h3-6,9-10,21H,7-8H2,1-2H3,(H2,18,19,20,22,24)

> <InChI Key_QSARr>
OFSLKOLYLQSJPB-UHFFFAOYSA-N

> <Salt_Solvent>
?

> <LogVP>
-6.7825

$$$$
103016
  -INDIGO-08031723152D

 42 43  0  0  0  0  0  0  0  0999 V2000
    4.0000    1.3856    0.0000 C   0  0  0  0  0  0  0  0  0  0  0  0
    4.8000    0.0001    0.0000 O   0  0  0  0  0  0  0  0  0  0  0  0
    4.8000    2.7712    0.0000 O   0  0  0  0  0  0  0  0  0  0  0  0
    6.4001    2.7712    0.0000 C   0  0  0  0  0  0  0  0  0  0  0  0
    8.0000    2.7712    0.0000 H   0  0  0  0  0  0  0  0  0  0  0  0
    7.2000    4.1569    0.0000 H   0  0  0  0  0  0  0  0  0  0  0  0
    7.2000    1.3856    0.0000 H   0  0  0  0  0  0  0  0  0  0  0  0
    2.4001    1.3856    0.0000 C   0  0  0  0  0  0  0  0  0  0  0  0
    1.5999    2.7712    0.0000 N   0  0  0  0  0  0  0  0  0  0  0  0
    2.4001    4.1569    0.0000 O   0  0  0  0  0  0  0  0  0  0  0  0
    1.5999    5.5425    0.0000 C   0  0  0  0  0  0  0  0  0  0  0  0
    2.4001    6.9282    0.0000 H   0  0  0  0  0  0  0  0  0  0  0  0
    0.8000    6.9282    0.0000 H   0  0  0  0  0  0  0  0  0  0  0  0
    3.2001    5.5425    0.0000 H   0  0  0  0  0  0  0  0  0  0  0  0
    1.5999    0.0001    0.0000 C   0  0  0  0  0  0  0  0  0  0  0  0
    0.0000    0.0001    0.0000 C   0  0  0  0  0  0  0  0  0  0  0  0
   -0.7999    1.3857    0.0000 C   0  0  0  0  0  0  0  0  0  0  0  0
   -0.5912    2.9720    0.0000 H   0  0  0  0  0  0  0  0  0  0  0  0
    0.4695    2.3597    0.0000 H   0  0  0  0  0  0  0  0  0  0  0  0
   -2.4001    1.3857    0.0000 O   0  0  0  0  0  0  0  0  0  0  0  0
   -3.2000    2.7712    0.0000 C   0  0  0  0  0  0  0  0  0  0  0  0
   -2.4001    4.1569    0.0000 C   0  0  0  0  0  0  0  0  0  0  0  0
   -0.7999    4.1569    0.0000 C   0  0  0  0  0  0  0  0  0  0  0  0
    0.0000    5.5425    0.0000 H   0  0  0  0  0  0  0  0  0  0  0  0
   -1.6001    5.5425    0.0000 H   0  0  0  0  0  0  0  0  0  0  0  0
    0.8000    4.1569    0.0000 H   0  0  0  0  0  0  0  0  0  0  0  0
   -3.2000    5.5425    0.0000 C   0  0  0  0  0  0  0  0  0  0  0  0
   -2.4001    6.9282    0.0000 H   0  0  0  0  0  0  0  0  0  0  0  0
   -4.7999    5.5425    0.0000 C   0  0  0  0  0  0  0  0  0  0  0  0
   -5.6001    6.9282    0.0000 H   0  0  0  0  0  0  0  0  0  0  0  0
   -5.6001    4.1569    0.0000 C   0  0  0  0  0  0  0  0  0  0  0  0
   -7.2000    4.1569    0.0000 H   0  0  0  0  0  0  0  0  0  0  0  0
   -4.7999    2.7712    0.0000 C   0  0  0  0  0  0  0  0  0  0  0  0
   -5.6001    1.3857    0.0000 H   0  0  0  0  0  0  0  0  0  0  0  0
   -0.7999   -1.3856    0.0000 C   0  0  0  0  0  0  0  0  0  0  0  0
   -2.4001   -1.3856    0.0000 H   0  0  0  0  0  0  0  0  0  0  0  0
    0.0000   -2.7713    0.0000 C   0  0  0  0  0  0  0  0  0  0  0  0
   -0.7999   -4.1569    0.0000 H   0  0  0  0  0  0  0  0  0  0  0  0
    1.5999   -2.7713    0.0000 C   0  0  0  0  0  0  0  0  0  0  0  0
    2.4001   -4.1569    0.0000 H   0  0  0  0  0  0  0  0  0  0  0  0
    2.4001   -1.3856    0.0000 C   0  0  0  0  0  0  0  0  0  0  0  0
    4.0000   -1.3856    0.0000 H   0  0  0  0  0  0  0  0  0  0  0  0
  1  2  2  0  0  0  0
  1  3  1  0  0  0  0
  3  4  1  0  0  0  0
  4  5  1  0  0  0  0
  4  6  1  0  0  0  0
  4  7  1  0  0  0  0
  1  8  1  0  0  0  0
  8  9  2  0  0  0  0
  9 10  1  0  0  0  0
 10 11  1  0  0  0  0
 11 12  1  0  0  0  0
 11 13  1  0  0  0  0
 11 14  1  0  0  0  0
  8 15  1  0  0  0  0
 15 16  1  0  0  0  0
 16 17  1  0  0  0  0
 17 18  1  0  0  0  0
 17 19  1  0  0  0  0
 17 20  1  0  0  0  0
 20 21  1  0  0  0  0
 21 22  1  0  0  0  0
 22 23  1  0  0  0  0
 23 24  1  0  0  0  0
 23 25  1  0  0  0  0
 23 26  1  0  0  0  0
 22 27  2  0  0  0  0
 27 28  1  0  0  0  0
 27 29  1  0  0  0  0
 29 30  1  0  0  0  0
 29 31  2  0  0  0  0
 31 32  1  0  0  0  0
 31 33  1  0  0  0  0
 33 21  2  0  0  0  0
 33 34  1  0  0  0  0
 16 35  2  0  0  0  0
 35 36  1  0  0  0  0
 35 37  1  0  0  0  0
 37 38  1  0  0  0  0
 37 39  2  0  0  0  0
 39 40  1  0  0  0  0
 39 41  1  0  0  0  0
 41 15  2  0  0  0  0
 41 42  1  0  0  0  0
M  END
> <ChemID>
103016

> <source_casrn>
143390-89-0

> <CAS>
143390-89-0

> <SMILES>
Cc1ccccc1OCc1ccccc1/C(=N\OC)/C(=O)OC

> <NAME>
BAS 490F

> <preferred_name>
Kresoxim-methyl

> <iupac>
methyl (2E)-(methoxyimino){2-[(2-methylphenoxy)methyl]phenyl}acetate

> <MPID>
27406

> <dsstox_substance_id>
DTXSID2032558

> <Canonical_QSARr>
Cc1ccccc1OCc1ccccc1C(=NOC)C(=O)OC

> <InChI_Code_QSARr>
InChI=1S/C18H19NO4/c1-13-8-4-7-11-16(13)23-12-14-9-5-6-10-15(14)17(19-22-3)18(20)21-2/h4-11H,12H2,1-3H3/b19-17-

> <InChI Key_QSARr>
ZOTBXTZVPHCKPN-ZPHPHTNESA-N

> <Salt_Solvent>
?

> <LogVP>
-7.7645

$$$$
103020
  -INDIGO-08031723152D

 49 51  0  0  0  0  0  0  0  0999 V2000
    4.4944    4.6020    0.0000 N   0  0  0  0  0  0  0  0  0  0  0  0
    5.7889    5.5426    0.0000 C   0  0  0  0  0  0  0  0  0  0  0  0
    7.3105    5.0481    0.0000 C   0  0  0  0  0  0  0  0  0  0  0  0
    7.6431    3.4831    0.0000 C   0  0  0  0  0  0  0  0  0  0  0  0
    6.4541    2.4126    0.0000 F   0  0  0  0  0  0  0  0  0  0  0  0
    9.1649    2.9886    0.0000 C   0  0  0  0  0  0  0  0  0  0  0  0
    9.4975    1.4236    0.0000 H   0  0  0  0  0  0  0  0  0  0  0  0
   10.3538    4.0593    0.0000 C   0  0  0  0  0  0  0  0  0  0  0  0
   11.8756    3.5648    0.0000 H   0  0  0  0  0  0  0  0  0  0  0  0
   10.0212    5.6243    0.0000 C   0  0  0  0  0  0  0  0  0  0  0  0
   11.2104    6.6950    0.0000 H   0  0  0  0  0  0  0  0  0  0  0  0
    8.4997    6.1188    0.0000 C   0  0  0  0  0  0  0  0  0  0  0  0
    8.1668    7.6838    0.0000 F   0  0  0  0  0  0  0  0  0  0  0  0
    5.2945    7.0642    0.0000 O   0  0  0  0  0  0  0  0  0  0  0  0
    3.6945    7.0642    0.0000 C   0  0  0  0  0  0  0  0  0  0  0  0
    3.8616    8.6555    0.0000 H   0  0  0  0  0  0  0  0  0  0  0  0
    2.1293    7.3968    0.0000 H   0  0  0  0  0  0  0  0  0  0  0  0
    3.2000    5.5426    0.0000 C   0  0  0  0  0  0  0  0  0  0  0  0
    1.7383    6.1933    0.0000 H   0  0  0  0  0  0  0  0  0  0  0  0
    2.3999    4.1569    0.0000 C   0  0  0  0  0  0  0  0  0  0  0  0
    0.8001    4.1569    0.0000 C   0  0  0  0  0  0  0  0  0  0  0  0
   -0.0000    5.5426    0.0000 O   0  0  0  0  0  0  0  0  0  0  0  0
   -1.6001    5.5426    0.0000 C   0  0  0  0  0  0  0  0  0  0  0  0
   -1.8089    3.9562    0.0000 H   0  0  0  0  0  0  0  0  0  0  0  0
   -2.8694    4.5686    0.0000 H   0  0  0  0  0  0  0  0  0  0  0  0
   -2.4000    6.9282    0.0000 C   0  0  0  0  0  0  0  0  0  0  0  0
   -3.2001    8.3139    0.0000 H   0  0  0  0  0  0  0  0  0  0  0  0
   -4.0000    6.9282    0.0000 H   0  0  0  0  0  0  0  0  0  0  0  0
   -1.6001    8.3139    0.0000 H   0  0  0  0  0  0  0  0  0  0  0  0
   -0.0000    2.7712    0.0000 C   0  0  0  0  0  0  0  0  0  0  0  0
   -1.6001    2.7712    0.0000 H   0  0  0  0  0  0  0  0  0  0  0  0
    0.8001    1.3857    0.0000 C   0  0  0  0  0  0  0  0  0  0  0  0
   -0.0000    0.0000    0.0000 C   0  0  0  0  0  0  0  0  0  0  0  0
   -0.7999   -1.3856    0.0000 C   0  0  0  0  0  0  0  0  0  0  0  0
   -1.6001   -2.7713    0.0000 H   0  0  0  0  0  0  0  0  0  0  0  0
   -0.2527   -2.8891    0.0000 H   0  0  0  0  0  0  0  0  0  0  0  0
   -2.3757   -1.6634    0.0000 H   0  0  0  0  0  0  0  0  0  0  0  0
    1.3856   -0.8001    0.0000 C   0  0  0  0  0  0  0  0  0  0  0  0
    2.8892   -1.3472    0.0000 H   0  0  0  0  0  0  0  0  0  0  0  0
    1.6635   -2.3756    0.0000 H   0  0  0  0  0  0  0  0  0  0  0  0
    0.1599   -1.8285    0.0000 H   0  0  0  0  0  0  0  0  0  0  0  0
   -1.3857    0.8000    0.0000 C   0  0  0  0  0  0  0  0  0  0  0  0
   -2.6112    1.8284    0.0000 H   0  0  0  0  0  0  0  0  0  0  0  0
   -2.8891    0.2528    0.0000 H   0  0  0  0  0  0  0  0  0  0  0  0
   -1.6635   -0.7758    0.0000 H   0  0  0  0  0  0  0  0  0  0  0  0
    2.3999    1.3857    0.0000 C   0  0  0  0  0  0  0  0  0  0  0  0
    3.2000    0.0000    0.0000 H   0  0  0  0  0  0  0  0  0  0  0  0
    3.2000    2.7712    0.0000 C   0  0  0  0  0  0  0  0  0  0  0  0
    4.8001    2.7712    0.0000 H   0  0  0  0  0  0  0  0  0  0  0  0
  1  2  2  0  0  0  0
  2  3  1  0  0  0  0
  3  4  1  0  0  0  0
  4  5  1  0  0  0  0
  4  6  2  0  0  0  0
  6  7  1  0  0  0  0
  6  8  1  0  0  0  0
  8  9  1  0  0  0  0
  8 10  2  0  0  0  0
 10 11  1  0  0  0  0
 10 12  1  0  0  0  0
 12  3  2  0  0  0  0
 12 13  1  0  0  0  0
  2 14  1  0  0  0  0
 14 15  1  0  0  0  0
 15 16  1  0  0  0  0
 15 17  1  0  0  0  0
 15 18  1  0  0  0  0
 18  1  1  0  0  0  0
 18 19  1  0  0  0  0
 18 20  1  0  0  0  0
 20 21  1  0  0  0  0
 21 22  1  0  0  0  0
 22 23  1  0  0  0  0
 23 24  1  0  0  0  0
 23 25  1  0  0  0  0
 23 26  1  0  0  0  0
 26 27  1  0  0  0  0
 26 28  1  0  0  0  0
 26 29  1  0  0  0  0
 21 30  2  0  0  0  0
 30 31  1  0  0  0  0
 30 32  1  0  0  0  0
 32 33  1  0  0  0  0
 33 34  1  0  0  0  0
 34 35  1  0  0  0  0
 34 36  1  0  0  0  0
 34 37  1  0  0  0  0
 33 38  1  0  0  0  0
 38 39  1  0  0  0  0
 38 40  1  0  0  0  0
 38 41  1  0  0  0  0
 33 42  1  0  0  0  0
 42 43  1  0  0  0  0
 42 44  1  0  0  0  0
 42 45  1  0  0  0  0
 32 46  2  0  0  0  0
 46 47  1  0  0  0  0
 46 48  1  0  0  0  0
 48 20  2  0  0  0  0
 48 49  1  0  0  0  0
M  END
> <ChemID>
103020

> <source_casrn>
153233-91-1

> <CAS>
153233-91-1

> <SMILES>
CCOc1cc(ccc1C1COC(=N1)c1c(F)cccc1F)C(C)(C)C

> <NAME>
ETOXAZOLE

> <preferred_name>
Etoxazole

> <iupac>
4-(4-tert-butyl-2-ethoxyphenyl)-2-(2,6-difluorophenyl)-4,5-dihydro-1,3-oxazole

> <MPID>
27410

> <dsstox_substance_id>
DTXSID8034586

> <Canonical_QSARr>
CCOc1cc(ccc1C1COC(=N1)c1c(F)cccc1F)C(C)(C)C

> <InChI_Code_QSARr>
InChI=1S/C21H23F2NO2/c1-5-25-18-11-13(21(2,3)4)9-10-14(18)17-12-26-20(24-17)19-15(22)7-6-8-16(19)23/h6-11,17H,5,12H2,1-4H3

> <InChI Key_QSARr>
IXSZQYVWNJNRAL-UHFFFAOYSA-N

> <Salt_Solvent>
?

> <LogVP>
-7.7852

$$$$
103025
  -INDIGO-08031723152D

 44 46  0  0  0  0  0  0  0  0999 V2000
    3.6985    2.0592    0.0000 C   0  0  0  0  0  0  0  0  0  0  0  0
    4.2460    3.5627    0.0000 H   0  0  0  0  0  0  0  0  0  0  0  0
    5.2742    2.3371    0.0000 H   0  0  0  0  0  0  0  0  0  0  0  0
    2.6703    3.2848    0.0000 H   0  0  0  0  0  0  0  0  0  0  0  0
    2.1228    1.7813    0.0000 C   0  0  0  0  0  0  0  0  0  0  0  0
    1.6417    3.3072    0.0000 H   0  0  0  0  0  0  0  0  0  0  0  0
    0.7037    2.5202    0.0000 H   0  0  0  0  0  0  0  0  0  0  0  0
    1.5757    0.2778    0.0000 N   0  0  0  0  0  0  0  0  0  0  0  0
    0.0000   -0.0001    0.0000 C   0  0  0  0  0  0  0  0  0  0  0  0
    0.5472    1.5034    0.0000 H   0  0  0  0  0  0  0  0  0  0  0  0
    0.0000   -1.6000    0.0000 C   0  0  0  0  0  0  0  0  0  0  0  0
    1.5757   -1.3221    0.0000 H   0  0  0  0  0  0  0  0  0  0  0  0
    0.5472   -3.1035    0.0000 H   0  0  0  0  0  0  0  0  0  0  0  0
   -1.3855   -2.4000    0.0000 C   0  0  0  0  0  0  0  0  0  0  0  0
   -0.3572   -3.6256    0.0000 H   0  0  0  0  0  0  0  0  0  0  0  0
   -2.4140   -3.6256    0.0000 H   0  0  0  0  0  0  0  0  0  0  0  0
   -2.7713   -1.6000    0.0000 C   0  0  0  0  0  0  0  0  0  0  0  0
   -3.3184   -3.1035    0.0000 H   0  0  0  0  0  0  0  0  0  0  0  0
   -4.3470   -1.3221    0.0000 H   0  0  0  0  0  0  0  0  0  0  0  0
   -2.7713   -0.0001    0.0000 C   0  0  0  0  0  0  0  0  0  0  0  0
   -4.3470   -0.2778    0.0000 H   0  0  0  0  0  0  0  0  0  0  0  0
   -3.3184    1.5034    0.0000 H   0  0  0  0  0  0  0  0  0  0  0  0
   -1.3855    0.8001    0.0000 C   0  0  0  0  0  0  0  0  0  0  0  0
   -2.4140    2.0257    0.0000 H   0  0  0  0  0  0  0  0  0  0  0  0
   -0.3572    2.0257    0.0000 H   0  0  0  0  0  0  0  0  0  0  0  0
    2.6042   -0.9478    0.0000 C   0  0  0  0  0  0  0  0  0  0  0  0
    4.1799   -0.6699    0.0000 N   0  0  0  0  0  0  0  0  0  0  0  0
    5.3308   -1.7814    0.0000 C   0  0  0  0  0  0  0  0  0  0  0  0
    5.1082   -3.3658    0.0000 O   0  0  0  0  0  0  0  0  0  0  0  0
    6.7435   -1.0302    0.0000 N   0  0  0  0  0  0  0  0  0  0  0  0
    8.1815   -1.7317    0.0000 C   0  0  0  0  0  0  0  0  0  0  0  0
    8.2933   -3.3278    0.0000 C   0  0  0  0  0  0  0  0  0  0  0  0
    6.9666   -4.2225    0.0000 H   0  0  0  0  0  0  0  0  0  0  0  0
    9.7312   -4.0291    0.0000 C   0  0  0  0  0  0  0  0  0  0  0  0
    9.8430   -5.6253    0.0000 H   0  0  0  0  0  0  0  0  0  0  0  0
   11.0576   -3.1345    0.0000 C   0  0  0  0  0  0  0  0  0  0  0  0
   12.4958   -3.8359    0.0000 H   0  0  0  0  0  0  0  0  0  0  0  0
   10.9461   -1.5383    0.0000 C   0  0  0  0  0  0  0  0  0  0  0  0
   12.2725   -0.6437    0.0000 H   0  0  0  0  0  0  0  0  0  0  0  0
    9.5081   -0.8369    0.0000 C   0  0  0  0  0  0  0  0  0  0  0  0
    9.3963    0.7591    0.0000 Cl  0  0  0  0  0  0  0  0  0  0  0  0
    6.4657    0.5455    0.0000 N   0  0  0  0  0  0  0  0  0  0  0  0
    4.8813    0.7681    0.0000 N   0  0  0  0  0  0  0  0  0  0  0  0
    2.0568   -2.4513    0.0000 O   0  0  0  0  0  0  0  0  0  0  0  0
  1  2  1  0  0  0  0
  1  3  1  0  0  0  0
  1  4  1  0  0  0  0
  1  5  1  0  0  0  0
  5  6  1  0  0  0  0
  5  7  1  0  0  0  0
  5  8  1  0  0  0  0
  8  9  1  0  0  0  0
  9 10  1  0  0  0  0
  9 11  1  0  0  0  0
 11 12  1  0  0  0  0
 11 13  1  0  0  0  0
 11 14  1  0  0  0  0
 14 15  1  0  0  0  0
 14 16  1  0  0  0  0
 14 17  1  0  0  0  0
 17 18  1  0  0  0  0
 17 19  1  0  0  0  0
 17 20  1  0  0  0  0
 20 21  1  0  0  0  0
 20 22  1  0  0  0  0
 20 23  1  0  0  0  0
 23  9  1  0  0  0  0
 23 24  1  0  0  0  0
 23 25  1  0  0  0  0
  8 26  1  0  0  0  0
 26 27  1  0  0  0  0
 27 28  1  0  0  0  0
 28 29  2  0  0  0  0
 28 30  1  0  0  0  0
 30 31  1  0  0  0  0
 31 32  1  0  0  0  0
 32 33  1  0  0  0  0
 32 34  2  0  0  0  0
 34 35  1  0  0  0  0
 34 36  1  0  0  0  0
 36 37  1  0  0  0  0
 36 38  2  0  0  0  0
 38 39  1  0  0  0  0
 38 40  1  0  0  0  0
 40 31  2  0  0  0  0
 40 41  1  0  0  0  0
 30 42  1  0  0  0  0
 42 43  2  0  0  0  0
 43 27  1  0  0  0  0
 26 44  2  0  0  0  0
M  END
> <ChemID>
103025

> <source_casrn>
158237-07-1

> <CAS>
158237-07-1

> <SMILES>
CCN(C1CCCCC1)C(=O)N1N=NN(c2ccccc2Cl)C1=O

> <NAME>
FENTRAZAMIDE

> <preferred_name>
Fentrazamide

> <iupac>
4-(2-chlorophenyl)-N-cyclohexyl-N-ethyl-5-oxo-4,5-dihydro-1H-tetrazole-1-carboxamide

> <MPID>
27414

> <dsstox_substance_id>
DTXSID8057988

> <Canonical_QSARr>
CCN(C1CCCCC1)C(=O)N1N=NN(c2ccccc2Cl)C1=O

> <InChI_Code_QSARr>
InChI=1S/C16H20ClN5O2/c1-2-20(12-8-4-3-5-9-12)15(23)22-16(24)21(18-19-22)14-11-7-6-10-13(14)17/h6-7,10-12H,2-5,8-9H2,1H3

> <InChI Key_QSARr>
LLQPHQFNMLZJMP-UHFFFAOYSA-N

> <Salt_Solvent>
?

> <LogVP>
-9.426

$$$$
103029
  -INDIGO-08031723152D

 37 38  0  0  0  0  0  0  0  0999 V2000
    0.8000   -1.3857    0.0000 C   0  0  0  0  0  0  0  0  0  0  0  0
    1.6000   -2.7713    0.0000 H   0  0  0  0  0  0  0  0  0  0  0  0
   -0.0001   -2.7713    0.0000 H   0  0  0  0  0  0  0  0  0  0  0  0
    2.4001   -1.3857    0.0000 H   0  0  0  0  0  0  0  0  0  0  0  0
   -0.0001    0.0000    0.0000 C   0  0  0  0  0  0  0  0  0  0  0  0
   -0.7999    1.3857    0.0000 H   0  0  0  0  0  0  0  0  0  0  0  0
    1.3857    0.8001    0.0000 C   0  0  0  0  0  0  0  0  0  0  0  0
    2.7713    1.6000    0.0000 H   0  0  0  0  0  0  0  0  0  0  0  0
    2.7713    0.0000    0.0000 H   0  0  0  0  0  0  0  0  0  0  0  0
    1.3857    2.4001    0.0000 H   0  0  0  0  0  0  0  0  0  0  0  0
   -1.3857   -0.7999    0.0000 O   0  0  0  0  0  0  0  0  0  0  0  0
   -2.7713    0.0000    0.0000 C   0  0  0  0  0  0  0  0  0  0  0  0
   -4.1568   -0.7999    0.0000 C   0  0  0  0  0  0  0  0  0  0  0  0
   -5.5427    0.0000    0.0000 C   0  0  0  0  0  0  0  0  0  0  0  0
   -5.5427    1.6000    0.0000 H   0  0  0  0  0  0  0  0  0  0  0  0
   -6.9282   -0.7999    0.0000 C   0  0  0  0  0  0  0  0  0  0  0  0
   -8.3138    0.0000    0.0000 C   0  0  0  0  0  0  0  0  0  0  0  0
   -8.4812    1.5913    0.0000 C   0  0  0  0  0  0  0  0  0  0  0  0
   -7.2920    2.6618    0.0000 Br  0  0  0  0  0  0  0  0  0  0  0  0
  -10.0462    1.9238    0.0000 C   0  0  0  0  0  0  0  0  0  0  0  0
  -10.6968    3.3856    0.0000 C   0  0  0  0  0  0  0  0  0  0  0  0
  -11.3477    4.8472    0.0000 F   0  0  0  0  0  0  0  0  0  0  0  0
  -12.2882    3.5528    0.0000 F   0  0  0  0  0  0  0  0  0  0  0  0
   -9.7565    4.6800    0.0000 F   0  0  0  0  0  0  0  0  0  0  0  0
  -10.8460    0.5382    0.0000 N   0  0  0  0  0  0  0  0  0  0  0  0
  -12.4374    0.3710    0.0000 C   0  0  0  0  0  0  0  0  0  0  0  0
  -14.0286    0.2037    0.0000 H   0  0  0  0  0  0  0  0  0  0  0  0
  -13.0880   -1.0907    0.0000 H   0  0  0  0  0  0  0  0  0  0  0  0
  -13.3777    1.6655    0.0000 H   0  0  0  0  0  0  0  0  0  0  0  0
   -9.7755   -0.6508    0.0000 N   0  0  0  0  0  0  0  0  0  0  0  0
   -6.9282   -2.3999    0.0000 C   0  0  0  0  0  0  0  0  0  0  0  0
   -8.3138   -3.2000    0.0000 F   0  0  0  0  0  0  0  0  0  0  0  0
   -5.5427   -3.2000    0.0000 C   0  0  0  0  0  0  0  0  0  0  0  0
   -5.5427   -4.8000    0.0000 H   0  0  0  0  0  0  0  0  0  0  0  0
   -4.1568   -2.3999    0.0000 C   0  0  0  0  0  0  0  0  0  0  0  0
   -2.7713   -3.2000    0.0000 Cl  0  0  0  0  0  0  0  0  0  0  0  0
   -2.7713    1.6000    0.0000 O   0  0  0  0  0  0  0  0  0  0  0  0
  1  2  1  0  0  0  0
  1  3  1  0  0  0  0
  1  4  1  0  0  0  0
  1  5  1  0  0  0  0
  5  6  1  0  0  0  0
  5  7  1  0  0  0  0
  7  8  1  0  0  0  0
  7  9  1  0  0  0  0
  7 10  1  0  0  0  0
  5 11  1  0  0  0  0
 11 12  1  0  0  0  0
 12 13  1  0  0  0  0
 13 14  1  0  0  0  0
 14 15  1  0  0  0  0
 14 16  2  0  0  0  0
 16 17  1  0  0  0  0
 17 18  1  0  0  0  0
 18 19  1  0  0  0  0
 18 20  2  0  0  0  0
 20 21  1  0  0  0  0
 21 22  1  0  0  0  0
 21 23  1  0  0  0  0
 21 24  1  0  0  0  0
 20 25  1  0  0  0  0
 25 26  1  0  0  0  0
 26 27  1  0  0  0  0
 26 28  1  0  0  0  0
 26 29  1  0  0  0  0
 25 30  1  0  0  0  0
 30 17  2  0  0  0  0
 16 31  1  0  0  0  0
 31 32  1  0  0  0  0
 31 33  2  0  0  0  0
 33 34  1  0  0  0  0
 33 35  1  0  0  0  0
 35 13  2  0  0  0  0
 35 36  1  0  0  0  0
 12 37  2  0  0  0  0
M  END
> <ChemID>
103029

> <source_casrn>
174514-07-9

> <CAS>
174514-07-9

> <SMILES>
CC(C)OC(=O)c1cc(-c2[n][n](C)c(c2Br)C(F)(F)F)c(F)cc1Cl

> <NAME>
ISOPROPAZOL

> <preferred_name>
Fluazolate

> <iupac>
isopropyl 5-[4-bromo-1-methyl-5-(trifluoromethyl)-1H-pyrazol-3-yl]-2-chloro-4-fluorobenzoate

> <MPID>
27418

> <dsstox_substance_id>
DTXSID7057999

> <Canonical_QSARr>
CC(C)OC(=O)c1cc(-c2[n][n](C)c(c2Br)C(F)(F)F)c(F)cc1Cl

> <InChI_Code_QSARr>
InChI=1S/C15H12BrClF4N2O2/c1-6(2)25-14(24)7-4-8(10(18)5-9(7)17)12-11(16)13(15(19,20)21)23(3)22-12/h4-6H,1-3H3

> <InChI Key_QSARr>
FKLQIONHGSFYJY-UHFFFAOYSA-N

> <Salt_Solvent>
?

> <LogVP>
-7.1506

$$$$
