100004
  -INDIGO-08031722282D

 23 23  0  0  0  0  0  0  0  0999 V2000
   -2.7713   -0.0000    0.0000 C   0  0  0  0  0  0  0  0  0  0  0  0
   -2.7713   -1.6000    0.0000 O   0  0  0  0  0  0  0  0  0  0  0  0
   -1.3856    0.8000    0.0000 N   0  0  0  0  0  0  0  0  0  0  0  0
   -1.3856    2.4000    0.0000 H   0  0  0  0  0  0  0  0  0  0  0  0
    0.0001   -0.0000    0.0000 C   0  0  0  0  0  0  0  0  0  0  0  0
    0.0001   -1.6000    0.0000 C   0  0  0  0  0  0  0  0  0  0  0  0
   -1.3856   -2.4000    0.0000 H   0  0  0  0  0  0  0  0  0  0  0  0
    1.3856   -2.4000    0.0000 C   0  0  0  0  0  0  0  0  0  0  0  0
    1.3856   -4.0000    0.0000 H   0  0  0  0  0  0  0  0  0  0  0  0
    2.7713   -1.6000    0.0000 C   0  0  0  0  0  0  0  0  0  0  0  0
    4.1570   -2.4000    0.0000 O   0  0  0  0  0  0  0  0  0  0  0  0
    5.5425   -1.6000    0.0000 C   0  0  0  0  0  0  0  0  0  0  0  0
    6.9282   -2.4000    0.0000 H   0  0  0  0  0  0  0  0  0  0  0  0
    6.9282   -0.8000    0.0000 H   0  0  0  0  0  0  0  0  0  0  0  0
    5.5425   -3.2000    0.0000 H   0  0  0  0  0  0  0  0  0  0  0  0
    2.7713   -0.0000    0.0000 C   0  0  0  0  0  0  0  0  0  0  0  0
    4.1570    0.8000    0.0000 H   0  0  0  0  0  0  0  0  0  0  0  0
    1.3856    0.8000    0.0000 C   0  0  0  0  0  0  0  0  0  0  0  0
    1.3856    2.4000    0.0000 H   0  0  0  0  0  0  0  0  0  0  0  0
   -4.1569    0.8000    0.0000 C   0  0  0  0  0  0  0  0  0  0  0  0
   -5.5426    1.6000    0.0000 H   0  0  0  0  0  0  0  0  0  0  0  0
   -5.5426   -0.0000    0.0000 H   0  0  0  0  0  0  0  0  0  0  0  0
   -4.1569    2.4000    0.0000 H   0  0  0  0  0  0  0  0  0  0  0  0
  1  2  2  0  0  0  0
  1  3  1  0  0  0  0
  3  4  1  0  0  0  0
  3  5  1  0  0  0  0
  5  6  1  0  0  0  0
  6  7  1  0  0  0  0
  6  8  2  0  0  0  0
  8  9  1  0  0  0  0
  8 10  1  0  0  0  0
 10 11  1  0  0  0  0
 11 12  1  0  0  0  0
 12 13  1  0  0  0  0
 12 14  1  0  0  0  0
 12 15  1  0  0  0  0
 10 16  2  0  0  0  0
 16 17  1  0  0  0  0
 16 18  1  0  0  0  0
 18  5  2  0  0  0  0
 18 19  1  0  0  0  0
  1 20  1  0  0  0  0
 20 21  1  0  0  0  0
 20 22  1  0  0  0  0
 20 23  1  0  0  0  0
M  END
> <ChemID>
100004

> <source_casrn>
51-66-1

> <CAS>
51-66-1

> <SMILES>
CC(=O)Nc1ccc(cc1)OC

> <NAME>
P-METHOXYACETANILIDE

> <preferred_name>
N-(4-Methoxyphenyl)acetamide

> <iupac>
N-(4-methoxyphenyl)acetamide

> <MPID>
99281

> <dsstox_substance_id>
DTXSID6026325

> <Canonical_QSARr>
CC(=O)Nc1ccc(cc1)OC

> <InChI_Code_QSARr>
InChI=1S/C9H11NO2/c1-7(11)10-8-3-5-9(12-2)6-4-8/h3-6H,1-2H3,(H,10,11)

> <InChI Key_QSARr>
XVAIDCNLVLTVFM-UHFFFAOYSA-N

> <LogKOC>
1.4

$$$$
100008
  -INDIGO-08031722282D

 26 27  0  0  0  0  0  0  0  0999 V2000
   -0.4944    1.5217    0.0000 N   0  0  0  0  0  0  0  0  0  0  0  0
   -0.0001    0.0000    0.0000 C   0  0  0  0  0  0  0  0  0  0  0  0
    0.8001   -1.3857    0.0000 H   0  0  0  0  0  0  0  0  0  0  0  0
    1.5960    0.1116    0.0000 C   0  0  0  0  0  0  0  0  0  0  0  0
    2.5365    1.4061    0.0000 C   0  0  0  0  0  0  0  0  0  0  0  0
    1.8857    2.8677    0.0000 H   0  0  0  0  0  0  0  0  0  0  0  0
    4.1278    1.2388    0.0000 N   0  0  0  0  0  0  0  0  0  0  0  0
    4.7785   -0.2229    0.0000 C   0  0  0  0  0  0  0  0  0  0  0  0
    6.3698   -0.3901    0.0000 H   0  0  0  0  0  0  0  0  0  0  0  0
    3.8381   -1.5173    0.0000 C   0  0  0  0  0  0  0  0  0  0  0  0
    4.4889   -2.9790    0.0000 H   0  0  0  0  0  0  0  0  0  0  0  0
    2.2468   -1.3500    0.0000 C   0  0  0  0  0  0  0  0  0  0  0  0
    1.3065   -2.6445    0.0000 H   0  0  0  0  0  0  0  0  0  0  0  0
   -1.2944   -0.9404    0.0000 C   0  0  0  0  0  0  0  0  0  0  0  0
   -0.2238   -2.1295    0.0000 H   0  0  0  0  0  0  0  0  0  0  0  0
   -2.3651   -2.1295    0.0000 H   0  0  0  0  0  0  0  0  0  0  0  0
   -2.5888    0.0000    0.0000 C   0  0  0  0  0  0  0  0  0  0  0  0
   -3.3889   -1.3857    0.0000 H   0  0  0  0  0  0  0  0  0  0  0  0
   -4.0505    0.6508    0.0000 H   0  0  0  0  0  0  0  0  0  0  0  0
   -2.0945    1.5217    0.0000 C   0  0  0  0  0  0  0  0  0  0  0  0
   -3.6595    1.8543    0.0000 H   0  0  0  0  0  0  0  0  0  0  0  0
   -2.2061    3.1178    0.0000 H   0  0  0  0  0  0  0  0  0  0  0  0
    0.4460    2.8161    0.0000 C   0  0  0  0  0  0  0  0  0  0  0  0
   -0.2047    4.2778    0.0000 H   0  0  0  0  0  0  0  0  0  0  0  0
    1.3865    4.1106    0.0000 H   0  0  0  0  0  0  0  0  0  0  0  0
   -1.1452    2.9833    0.0000 H   0  0  0  0  0  0  0  0  0  0  0  0
  1  2  1  0  0  0  0
  2  3  1  0  0  0  0
  2  4  1  0  0  0  0
  4  5  1  0  0  0  0
  5  6  1  0  0  0  0
  5  7  2  0  0  0  0
  7  8  1  0  0  0  0
  8  9  1  0  0  0  0
  8 10  2  0  0  0  0
 10 11  1  0  0  0  0
 10 12  1  0  0  0  0
 12  4  2  0  0  0  0
 12 13  1  0  0  0  0
  2 14  1  0  0  0  0
 14 15  1  0  0  0  0
 14 16  1  0  0  0  0
 14 17  1  0  0  0  0
 17 18  1  0  0  0  0
 17 19  1  0  0  0  0
 17 20  1  0  0  0  0
 20  1  1  0  0  0  0
 20 21  1  0  0  0  0
 20 22  1  0  0  0  0
  1 23  1  0  0  0  0
 23 24  1  0  0  0  0
 23 25  1  0  0  0  0
 23 26  1  0  0  0  0
M  END
> <ChemID>
100008

> <source_casrn>
54-11-5

> <CAS>
54-11-5

> <SMILES>
CN1CCC[C@H]1c1c[n]ccc1

> <NAME>
NICOTINE

> <preferred_name>
Nicotine

> <iupac>
C10H14N2

> <MPID>
99285

> <dsstox_substance_id>
DTXSID1020930

> <Canonical_QSARr>
CN1CCCC1c1c[n]ccc1

> <InChI_Code_QSARr>
InChI=1S/C10H14N2/c1-12-7-3-5-10(12)9-4-2-6-11-8-9/h2,4,6,8,10H,3,5,7H2,1H3

> <InChI Key_QSARr>
SNICXCGAKADSCV-UHFFFAOYSA-N

> <LogKOC>
2.01

$$$$
100012
  -INDIGO-08031722282D

  5  4  0  0  0  0  0  0  0  0999 V2000
   -0.8000   -1.3856    0.0000 Cl  0  0  0  0  0  0  0  0  0  0  0  0
    0.0000    0.0000    0.0000 C   0  0  0  0  0  0  0  0  0  0  0  0
    0.8000    1.3856    0.0000 Cl  0  0  0  0  0  0  0  0  0  0  0  0
   -1.3856    0.8000    0.0000 Cl  0  0  0  0  0  0  0  0  0  0  0  0
    1.3856   -0.8000    0.0000 Cl  0  0  0  0  0  0  0  0  0  0  0  0
  1  2  1  0  0  0  0
  2  3  1  0  0  0  0
  2  4  1  0  0  0  0
  2  5  1  0  0  0  0
M  END
> <ChemID>
100012

> <source_casrn>
56-23-5

> <CAS>
56-23-5

> <SMILES>
ClC(Cl)(Cl)Cl

> <NAME>
CARBON TETRACHLORIDE

> <preferred_name>
Carbon tetrachloride

> <iupac>
tetrachloromethane

> <MPID>
99289

> <dsstox_substance_id>
DTXSID8020250

> <Canonical_QSARr>
ClC(Cl)(Cl)Cl

> <InChI_Code_QSARr>
InChI=1S/CCl4/c2-1(3,4)5

> <InChI Key_QSARr>
VZGDMQKNWNREIO-UHFFFAOYSA-N

> <LogKOC>
1.85

$$$$
100016
  -INDIGO-08031722282D

 30 33  0  0  0  0  0  0  0  0999 V2000
    0.0000   -0.0001    0.0000 C   0  0  0  0  0  0  0  0  0  0  0  0
   -0.8000    1.3856    0.0000 C   0  0  0  0  0  0  0  0  0  0  0  0
    0.0000    2.7713    0.0000 H   0  0  0  0  0  0  0  0  0  0  0  0
   -2.4000    1.3856    0.0000 C   0  0  0  0  0  0  0  0  0  0  0  0
   -3.2000   -0.0001    0.0000 C   0  0  0  0  0  0  0  0  0  0  0  0
   -4.8000    0.0001    0.0000 C   0  0  0  0  0  0  0  0  0  0  0  0
   -5.6000   -1.3856    0.0000 H   0  0  0  0  0  0  0  0  0  0  0  0
   -5.6000    1.3856    0.0000 C   0  0  0  0  0  0  0  0  0  0  0  0
   -7.2000    1.3856    0.0000 H   0  0  0  0  0  0  0  0  0  0  0  0
   -4.8000    2.7712    0.0000 C   0  0  0  0  0  0  0  0  0  0  0  0
   -5.6000    4.1569    0.0000 H   0  0  0  0  0  0  0  0  0  0  0  0
   -3.2000    2.7712    0.0000 C   0  0  0  0  0  0  0  0  0  0  0  0
   -2.4000    4.1569    0.0000 H   0  0  0  0  0  0  0  0  0  0  0  0
   -2.4000   -1.3856    0.0000 C   0  0  0  0  0  0  0  0  0  0  0  0
   -3.2000   -2.7712    0.0000 H   0  0  0  0  0  0  0  0  0  0  0  0
   -0.8000   -1.3856    0.0000 C   0  0  0  0  0  0  0  0  0  0  0  0
    0.0000   -2.7712    0.0000 C   0  0  0  0  0  0  0  0  0  0  0  0
   -0.8000   -4.1569    0.0000 H   0  0  0  0  0  0  0  0  0  0  0  0
    1.6000   -2.7712    0.0000 C   0  0  0  0  0  0  0  0  0  0  0  0
    2.4000   -4.1569    0.0000 H   0  0  0  0  0  0  0  0  0  0  0  0
    2.4000   -1.3856    0.0000 C   0  0  0  0  0  0  0  0  0  0  0  0
    1.6000   -0.0001    0.0000 C   0  0  0  0  0  0  0  0  0  0  0  0
    2.4000    1.3856    0.0000 C   0  0  0  0  0  0  0  0  0  0  0  0
    1.6000    2.7712    0.0000 H   0  0  0  0  0  0  0  0  0  0  0  0
    4.0000    1.3856    0.0000 C   0  0  0  0  0  0  0  0  0  0  0  0
    4.8000    2.7712    0.0000 H   0  0  0  0  0  0  0  0  0  0  0  0
    4.8000   -0.0001    0.0000 C   0  0  0  0  0  0  0  0  0  0  0  0
    6.4000   -0.0001    0.0000 H   0  0  0  0  0  0  0  0  0  0  0  0
    4.0000   -1.3856    0.0000 C   0  0  0  0  0  0  0  0  0  0  0  0
    4.8000   -2.7713    0.0000 H   0  0  0  0  0  0  0  0  0  0  0  0
  1  2  1  0  0  0  0
  2  3  1  0  0  0  0
  2  4  2  0  0  0  0
  4  5  1  0  0  0  0
  5  6  1  0  0  0  0
  6  7  1  0  0  0  0
  6  8  2  0  0  0  0
  8  9  1  0  0  0  0
  8 10  1  0  0  0  0
 10 11  1  0  0  0  0
 10 12  2  0  0  0  0
 12  4  1  0  0  0  0
 12 13  1  0  0  0  0
  5 14  2  0  0  0  0
 14 15  1  0  0  0  0
 14 16  1  0  0  0  0
 16  1  1  0  0  0  0
 16 17  2  0  0  0  0
 17 18  1  0  0  0  0
 17 19  1  0  0  0  0
 19 20  1  0  0  0  0
 19 21  2  0  0  0  0
 21 22  1  0  0  0  0
 22  1  2  0  0  0  0
 22 23  1  0  0  0  0
 23 24  1  0  0  0  0
 23 25  2  0  0  0  0
 25 26  1  0  0  0  0
 25 27  1  0  0  0  0
 27 28  1  0  0  0  0
 27 29  2  0  0  0  0
 29 21  1  0  0  0  0
 29 30  1  0  0  0  0
M  END
> <ChemID>
100016

> <source_casrn>
56-55-3

> <CAS>
56-55-3

> <SMILES>
c1c2c3ccccc3ccc2cc2ccccc21

> <NAME>
BENZ(A)ANTHRACENE

> <preferred_name>
Benz(a)anthracene

> <iupac>
tetraphene

> <MPID>
99293

> <dsstox_substance_id>
DTXSID5023902

> <Canonical_QSARr>
c1c2c3ccccc3ccc2cc2ccccc21

> <InChI_Code_QSARr>
InChI=1S/C18H12/c1-2-7-15-12-18-16(11-14(15)6-1)10-9-13-5-3-4-8-17(13)18/h1-12H

> <InChI Key_QSARr>
DXBHBZVCASKNBY-UHFFFAOYSA-N

> <LogKOC>
5.3

$$$$
100020
  -INDIGO-08031722282D

 36 39  0  0  0  0  0  0  0  0999 V2000
    0.0000    2.7713    0.0000 C   0  0  0  0  0  0  0  0  0  0  0  0
    0.8000    4.1569    0.0000 H   0  0  0  0  0  0  0  0  0  0  0  0
   -0.8000    4.1569    0.0000 H   0  0  0  0  0  0  0  0  0  0  0  0
   -1.6000    2.7713    0.0000 H   0  0  0  0  0  0  0  0  0  0  0  0
   -0.8000    1.3856    0.0000 C   0  0  0  0  0  0  0  0  0  0  0  0
   -2.4000    1.3856    0.0000 C   0  0  0  0  0  0  0  0  0  0  0  0
   -3.2000    0.0001    0.0000 C   0  0  0  0  0  0  0  0  0  0  0  0
   -4.8000    0.0001    0.0000 C   0  0  0  0  0  0  0  0  0  0  0  0
   -5.6000   -1.3856    0.0000 H   0  0  0  0  0  0  0  0  0  0  0  0
   -5.6000    1.3856    0.0000 C   0  0  0  0  0  0  0  0  0  0  0  0
   -7.2000    1.3856    0.0000 H   0  0  0  0  0  0  0  0  0  0  0  0
   -4.8000    2.7712    0.0000 C   0  0  0  0  0  0  0  0  0  0  0  0
   -5.6000    4.1569    0.0000 H   0  0  0  0  0  0  0  0  0  0  0  0
   -3.2000    2.7713    0.0000 C   0  0  0  0  0  0  0  0  0  0  0  0
   -2.4000    4.1569    0.0000 H   0  0  0  0  0  0  0  0  0  0  0  0
   -2.4000   -1.3856    0.0000 C   0  0  0  0  0  0  0  0  0  0  0  0
   -3.2000   -2.7712    0.0000 C   0  0  0  0  0  0  0  0  0  0  0  0
   -4.0000   -4.1569    0.0000 H   0  0  0  0  0  0  0  0  0  0  0  0
   -4.8000   -2.7712    0.0000 H   0  0  0  0  0  0  0  0  0  0  0  0
   -2.4000   -4.1569    0.0000 H   0  0  0  0  0  0  0  0  0  0  0  0
   -0.8000   -1.3856    0.0000 C   0  0  0  0  0  0  0  0  0  0  0  0
    0.0000    0.0001    0.0000 C   0  0  0  0  0  0  0  0  0  0  0  0
    1.6000   -0.0001    0.0000 C   0  0  0  0  0  0  0  0  0  0  0  0
    2.4000   -1.3856    0.0000 C   0  0  0  0  0  0  0  0  0  0  0  0
    1.6000   -2.7712    0.0000 C   0  0  0  0  0  0  0  0  0  0  0  0
    2.4000   -4.1569    0.0000 H   0  0  0  0  0  0  0  0  0  0  0  0
    0.0000   -2.7712    0.0000 C   0  0  0  0  0  0  0  0  0  0  0  0
   -0.8000   -4.1569    0.0000 H   0  0  0  0  0  0  0  0  0  0  0  0
    4.0000   -1.3856    0.0000 C   0  0  0  0  0  0  0  0  0  0  0  0
    4.8000   -2.7713    0.0000 H   0  0  0  0  0  0  0  0  0  0  0  0
    4.8000   -0.0001    0.0000 C   0  0  0  0  0  0  0  0  0  0  0  0
    6.4000   -0.0001    0.0000 H   0  0  0  0  0  0  0  0  0  0  0  0
    4.0000    1.3856    0.0000 C   0  0  0  0  0  0  0  0  0  0  0  0
    4.8000    2.7712    0.0000 H   0  0  0  0  0  0  0  0  0  0  0  0
    2.4000    1.3856    0.0000 C   0  0  0  0  0  0  0  0  0  0  0  0
    1.6000    2.7712    0.0000 H   0  0  0  0  0  0  0  0  0  0  0  0
  1  2  1  0  0  0  0
  1  3  1  0  0  0  0
  1  4  1  0  0  0  0
  1  5  1  0  0  0  0
  5  6  1  0  0  0  0
  6  7  1  0  0  0  0
  7  8  2  0  0  0  0
  8  9  1  0  0  0  0
  8 10  1  0  0  0  0
 10 11  1  0  0  0  0
 10 12  2  0  0  0  0
 12 13  1  0  0  0  0
 12 14  1  0  0  0  0
 14  6  2  0  0  0  0
 14 15  1  0  0  0  0
  7 16  1  0  0  0  0
 16 17  1  0  0  0  0
 17 18  1  0  0  0  0
 17 19  1  0  0  0  0
 17 20  1  0  0  0  0
 16 21  2  0  0  0  0
 21 22  1  0  0  0  0
 22  5  2  0  0  0  0
 22 23  1  0  0  0  0
 23 24  1  0  0  0  0
 24 25  1  0  0  0  0
 25 26  1  0  0  0  0
 25 27  2  0  0  0  0
 27 21  1  0  0  0  0
 27 28  1  0  0  0  0
 24 29  2  0  0  0  0
 29 30  1  0  0  0  0
 29 31  1  0  0  0  0
 31 32  1  0  0  0  0
 31 33  2  0  0  0  0
 33 34  1  0  0  0  0
 33 35  1  0  0  0  0
 35 23  2  0  0  0  0
 35 36  1  0  0  0  0
M  END
> <ChemID>
100020

> <source_casrn>
57-97-6

> <CAS>
57-97-6

> <SMILES>
c(c(c(c(c1)ccc2)c2)c(c(c3ccc4)c4)C)(c3C)c1

> <NAME>
7,12-DIME-BENZ(A)ANTHRACENE

> <preferred_name>
7,12-Dimethylbenz(a)anthracene

> <iupac>
7,12-dimethyltetraphene

> <MPID>
99297

> <dsstox_substance_id>
DTXSID1020510

> <Canonical_QSARr>
Cc1c2ccc3ccccc3c2c(C)c2ccccc12

> <InChI_Code_QSARr>
InChI=1S/C20H16/c1-13-16-8-5-6-9-17(16)14(2)20-18(13)12-11-15-7-3-4-10-19(15)20/h3-12H,1-2H3

> <InChI Key_QSARr>
ARSRBNBHOADGJU-UHFFFAOYSA-N

> <LogKOC>
5.37

$$$$
100024
  -INDIGO-08031722282D

 32 33  0  0  0  0  0  0  0  0999 V2000
    2.4001    1.3856    0.0000 C   0  0  0  0  0  0  0  0  0  0  0  0
    3.1999    2.7713    0.0000 H   0  0  0  0  0  0  0  0  0  0  0  0
    4.0000    1.3856    0.0000 H   0  0  0  0  0  0  0  0  0  0  0  0
    1.6001    2.7713    0.0000 H   0  0  0  0  0  0  0  0  0  0  0  0
    1.6001    0.0000    0.0000 N   0  0  0  0  0  0  0  0  0  0  0  0
   -0.0001    0.0000    0.0000 C   0  0  0  0  0  0  0  0  0  0  0  0
   -0.7999    1.3856    0.0000 C   0  0  0  0  0  0  0  0  0  0  0  0
   -0.0001    2.7713    0.0000 H   0  0  0  0  0  0  0  0  0  0  0  0
   -2.4000    1.3856    0.0000 C   0  0  0  0  0  0  0  0  0  0  0  0
   -3.2001    2.7713    0.0000 H   0  0  0  0  0  0  0  0  0  0  0  0
   -3.2001    0.0000    0.0000 C   0  0  0  0  0  0  0  0  0  0  0  0
   -4.7999    0.0000    0.0000 N   0  0  0  0  0  0  0  0  0  0  0  0
   -5.6000    1.3856    0.0000 N   0  0  0  0  0  0  0  0  0  0  0  0
   -7.2001    1.3856    0.0000 C   0  0  0  0  0  0  0  0  0  0  0  0
   -7.9999    2.7713    0.0000 C   0  0  0  0  0  0  0  0  0  0  0  0
   -7.2001    4.1569    0.0000 H   0  0  0  0  0  0  0  0  0  0  0  0
   -9.6001    2.7713    0.0000 C   0  0  0  0  0  0  0  0  0  0  0  0
  -10.4001    4.1569    0.0000 H   0  0  0  0  0  0  0  0  0  0  0  0
  -10.4001    1.3856    0.0000 C   0  0  0  0  0  0  0  0  0  0  0  0
  -12.0000    1.3856    0.0000 H   0  0  0  0  0  0  0  0  0  0  0  0
   -9.6001    0.0000    0.0000 C   0  0  0  0  0  0  0  0  0  0  0  0
  -10.3999   -1.3856    0.0000 H   0  0  0  0  0  0  0  0  0  0  0  0
   -7.9999    0.0000    0.0000 C   0  0  0  0  0  0  0  0  0  0  0  0
   -7.2001   -1.3856    0.0000 H   0  0  0  0  0  0  0  0  0  0  0  0
   -2.4000   -1.3856    0.0000 C   0  0  0  0  0  0  0  0  0  0  0  0
   -3.2001   -2.7713    0.0000 H   0  0  0  0  0  0  0  0  0  0  0  0
   -0.7999   -1.3856    0.0000 C   0  0  0  0  0  0  0  0  0  0  0  0
   -0.0001   -2.7713    0.0000 H   0  0  0  0  0  0  0  0  0  0  0  0
    2.4001   -1.3856    0.0000 C   0  0  0  0  0  0  0  0  0  0  0  0
    3.1999   -2.7713    0.0000 H   0  0  0  0  0  0  0  0  0  0  0  0
    4.0000   -1.3856    0.0000 H   0  0  0  0  0  0  0  0  0  0  0  0
    1.6001   -2.7713    0.0000 H   0  0  0  0  0  0  0  0  0  0  0  0
  1  2  1  0  0  0  0
  1  3  1  0  0  0  0
  1  4  1  0  0  0  0
  1  5  1  0  0  0  0
  5  6  1  0  0  0  0
  6  7  1  0  0  0  0
  7  8  1  0  0  0  0
  7  9  2  0  0  0  0
  9 10  1  0  0  0  0
  9 11  1  0  0  0  0
 11 12  1  0  0  0  0
 12 13  2  0  0  0  0
 13 14  1  0  0  0  0
 14 15  1  0  0  0  0
 15 16  1  0  0  0  0
 15 17  2  0  0  0  0
 17 18  1  0  0  0  0
 17 19  1  0  0  0  0
 19 20  1  0  0  0  0
 19 21  2  0  0  0  0
 21 22  1  0  0  0  0
 21 23  1  0  0  0  0
 23 14  2  0  0  0  0
 23 24  1  0  0  0  0
 11 25  2  0  0  0  0
 25 26  1  0  0  0  0
 25 27  1  0  0  0  0
 27  6  2  0  0  0  0
 27 28  1  0  0  0  0
  5 29  1  0  0  0  0
 29 30  1  0  0  0  0
 29 31  1  0  0  0  0
 29 32  1  0  0  0  0
M  END
> <ChemID>
100024

> <source_casrn>
60-11-7

> <CAS>
60-11-7

> <SMILES>
CN(C)c1ccc(cc1)N=Nc1ccccc1

> <NAME>
4-(N,N-DIMETHYLAMINO)AZOBENZENE

> <preferred_name>
4-(Dimethylamino)azobenzene

> <iupac>
N,N-dimethyl-4-(phenyldiazenyl)aniline

> <MPID>
99301

> <dsstox_substance_id>
DTXSID5020491

> <Canonical_QSARr>
CN(C)c1ccc(cc1)N=Nc1ccccc1

> <InChI_Code_QSARr>
InChI=1S/C14H15N3/c1-17(2)14-10-8-13(9-11-14)16-15-12-6-4-3-5-7-12/h3-11H,1-2H3/b16-15+

> <InChI Key_QSARr>
JCYPECIVGRXBMO-FOCLMDBBSA-N

> <LogKOC>
3.87

$$$$
100028
  -INDIGO-08031722282D

 27 31  0  0  0  0  0  0  0  0999 V2000
    3.1939    1.2731    0.0000 C   0  0  0  0  0  0  0  0  0  0  0  0
    3.9940    2.6588    0.0000 H   0  0  0  0  0  0  0  0  0  0  0  0
    4.4884    0.3326    0.0000 O   0  0  0  0  0  0  0  0  0  0  0  0
    3.0267   -0.3182    0.0000 C   0  0  0  0  0  0  0  0  0  0  0  0
    3.5211   -1.8398    0.0000 H   0  0  0  0  0  0  0  0  0  0  0  0
    1.4617   -0.6508    0.0000 C   0  0  0  0  0  0  0  0  0  0  0  0
    1.2944   -2.2420    0.0000 H   0  0  0  0  0  0  0  0  0  0  0  0
    0.0001    0.0000    0.0000 C   0  0  0  0  0  0  0  0  0  0  0  0
   -0.1673   -1.5912    0.0000 H   0  0  0  0  0  0  0  0  0  0  0  0
    0.1672    1.5912    0.0000 C   0  0  0  0  0  0  0  0  0  0  0  0
    0.3344    3.1825    0.0000 H   0  0  0  0  0  0  0  0  0  0  0  0
    1.7323    1.9239    0.0000 C   0  0  0  0  0  0  0  0  0  0  0  0
    1.8996    3.5151    0.0000 H   0  0  0  0  0  0  0  0  0  0  0  0
    2.5322    0.5382    0.0000 C   0  0  0  0  0  0  0  0  0  0  0  0
    3.7931   -0.4468    0.0000 H   0  0  0  0  0  0  0  0  0  0  0  0
    3.9704    1.2396    0.0000 H   0  0  0  0  0  0  0  0  0  0  0  0
   -1.2944    2.2420    0.0000 C   0  0  0  0  0  0  0  0  0  0  0  0
   -2.8594    1.9094    0.0000 C   0  0  0  0  0  0  0  0  0  0  0  0
   -3.0267    0.3182    0.0000 C   0  0  0  0  0  0  0  0  0  0  0  0
   -4.4123   -0.4819    0.0000 Cl  0  0  0  0  0  0  0  0  0  0  0  0
   -1.5651   -0.3326    0.0000 C   0  0  0  0  0  0  0  0  0  0  0  0
   -2.3651    1.0530    0.0000 C   0  0  0  0  0  0  0  0  0  0  0  0
   -3.7778    1.8042    0.0000 Cl  0  0  0  0  0  0  0  0  0  0  0  0
   -3.8031    0.3516    0.0000 Cl  0  0  0  0  0  0  0  0  0  0  0  0
   -1.7323   -1.9239    0.0000 Cl  0  0  0  0  0  0  0  0  0  0  0  0
   -4.0485    2.9799    0.0000 Cl  0  0  0  0  0  0  0  0  0  0  0  0
   -1.1272    3.8332    0.0000 Cl  0  0  0  0  0  0  0  0  0  0  0  0
  1  2  1  0  0  0  0
  1  3  1  0  0  0  0
  3  4  1  0  0  0  0
  4  1  1  0  0  0  0
  4  5  1  0  0  0  0
  4  6  1  0  0  0  0
  6  7  1  0  0  0  0
  6  8  1  0  0  0  0
  8  9  1  0  0  0  0
  8 10  1  0  0  0  0
 10 11  1  0  0  0  0
 10 12  1  0  0  0  0
 12  1  1  0  0  0  0
 12 13  1  0  0  0  0
 12 14  1  0  0  0  0
 14  6  1  0  0  0  0
 14 15  1  0  0  0  0
 14 16  1  0  0  0  0
 10 17  1  0  0  0  0
 17 18  1  0  0  0  0
 18 19  2  0  0  0  0
 19 20  1  0  0  0  0
 19 21  1  0  0  0  0
 21  8  1  0  0  0  0
 21 22  1  0  0  0  0
 22 17  1  0  0  0  0
 22 23  1  0  0  0  0
 22 24  1  0  0  0  0
 21 25  1  0  0  0  0
 18 26  1  0  0  0  0
 17 27  1  0  0  0  0
M  END
> <ChemID>
100028

> <source_casrn>
60-57-1|72-20-8

> <CAS>
60-57-1|72-20-8

> <SMILES>
ClC1(Cl)[C@@]2(Cl)[C@@H]3[C@@H]4C[C@@H]([C@H]5O[C@H]54)[C@@H]3[C@]1(Cl)C(Cl)=C2Cl |o1:3,5,6,8,9,11,12,13|

> <NAME>
DIELDRIN, ENDRIN

> <preferred_name>
Dieldrin

> <iupac>


> <MPID>
99305|99325

> <dsstox_substance_id>
DTXSID9020453|DTXSID6020561

> <Canonical_QSARr>
ClC1(Cl)C2(Cl)C3C4CC(C5OC54)C3C1(Cl)C(Cl)=C2Cl

> <InChI_Code_QSARr>
InChI=1S/C12H8Cl6O/c13-8-9(14)11(16)5-3-1-2(6-7(3)19-6)4(5)10(8,15)12(11,17)18/h2-7H,1H2

> <InChI Key_QSARr>
DFBKLUNHFCTMDC-UHFFFAOYSA-N

> <LogKOC>
4.08

$$$$
100032
  -INDIGO-08031722282D

  8  7  0  0  0  0  0  0  0  0999 V2000
    1.3856    0.8000    0.0000 N   0  0  0  0  0  0  0  0  0  0  0  0
    2.7713    0.0000    0.0000 H   0  0  0  0  0  0  0  0  0  0  0  0
    1.3856    2.4000    0.0000 H   0  0  0  0  0  0  0  0  0  0  0  0
    0.0000    0.0000    0.0000 C   0  0  0  0  0  0  0  0  0  0  0  0
    0.0000   -1.6000    0.0000 S   0  0  0  0  0  0  0  0  0  0  0  0
   -1.3856    0.8000    0.0000 N   0  0  0  0  0  0  0  0  0  0  0  0
   -2.7713    0.0000    0.0000 H   0  0  0  0  0  0  0  0  0  0  0  0
   -1.3856    2.4000    0.0000 H   0  0  0  0  0  0  0  0  0  0  0  0
  1  2  1  0  0  0  0
  1  3  1  0  0  0  0
  1  4  1  0  0  0  0
  4  5  2  0  0  0  0
  4  6  1  0  0  0  0
  6  7  1  0  0  0  0
  6  8  1  0  0  0  0
M  END
> <ChemID>
100032

> <source_casrn>
62-56-6

> <CAS>
62-56-6

> <SMILES>
NC(N)=S

> <NAME>
THIOUREA

> <preferred_name>
Thiourea

> <iupac>
thiourea

> <MPID>
99309

> <dsstox_substance_id>
DTXSID9021348

> <Canonical_QSARr>
NC(N)=S

> <InChI_Code_QSARr>
InChI=1S/CH4N2S/c2-1(3)4/h(H4,2,3,4)

> <InChI Key_QSARr>
UMGDCJDMYOKAJW-UHFFFAOYSA-N

> <LogKOC>
0.85

$$$$
100036
  -INDIGO-08031722282D

 18 18  0  0  0  0  0  0  0  0999 V2000
   -2.7713   -0.0000    0.0000 C   0  0  0  0  0  0  0  0  0  0  0  0
   -2.7713   -1.6000    0.0000 O   0  0  0  0  0  0  0  0  0  0  0  0
   -1.3857    0.8000    0.0000 N   0  0  0  0  0  0  0  0  0  0  0  0
   -1.3857    2.4000    0.0000 H   0  0  0  0  0  0  0  0  0  0  0  0
    0.0001   -0.0000    0.0000 C   0  0  0  0  0  0  0  0  0  0  0  0
    0.0001   -1.6000    0.0000 C   0  0  0  0  0  0  0  0  0  0  0  0
   -1.3857   -2.4000    0.0000 H   0  0  0  0  0  0  0  0  0  0  0  0
    1.3857   -2.4000    0.0000 C   0  0  0  0  0  0  0  0  0  0  0  0
    1.3857   -4.0000    0.0000 H   0  0  0  0  0  0  0  0  0  0  0  0
    2.7713   -1.6000    0.0000 C   0  0  0  0  0  0  0  0  0  0  0  0
    4.1569   -2.4000    0.0000 H   0  0  0  0  0  0  0  0  0  0  0  0
    2.7713   -0.0000    0.0000 C   0  0  0  0  0  0  0  0  0  0  0  0
    4.1569    0.8000    0.0000 H   0  0  0  0  0  0  0  0  0  0  0  0
    1.3857    0.8000    0.0000 C   0  0  0  0  0  0  0  0  0  0  0  0
    1.3857    2.4000    0.0000 H   0  0  0  0  0  0  0  0  0  0  0  0
   -4.1569    0.8000    0.0000 N   0  0  0  0  0  0  0  0  0  0  0  0
   -5.5426   -0.0000    0.0000 H   0  0  0  0  0  0  0  0  0  0  0  0
   -4.1569    2.4000    0.0000 H   0  0  0  0  0  0  0  0  0  0  0  0
  1  2  2  0  0  0  0
  1  3  1  0  0  0  0
  3  4  1  0  0  0  0
  3  5  1  0  0  0  0
  5  6  1  0  0  0  0
  6  7  1  0  0  0  0
  6  8  2  0  0  0  0
  8  9  1  0  0  0  0
  8 10  1  0  0  0  0
 10 11  1  0  0  0  0
 10 12  2  0  0  0  0
 12 13  1  0  0  0  0
 12 14  1  0  0  0  0
 14  5  2  0  0  0  0
 14 15  1  0  0  0  0
  1 16  1  0  0  0  0
 16 17  1  0  0  0  0
 16 18  1  0  0  0  0
M  END
> <ChemID>
100036

> <source_casrn>
64-10-8

> <CAS>
64-10-8

> <SMILES>
NC(=O)Nc1ccccc1

> <NAME>
PHENYLUREA

> <preferred_name>
1-Phenylurea

> <iupac>
C7H8N2O

> <MPID>
99313

> <dsstox_substance_id>
DTXSID8042507

> <Canonical_QSARr>
NC(=O)Nc1ccccc1

> <InChI_Code_QSARr>
InChI=1S/C7H8N2O/c8-7(10)9-6-4-2-1-3-5-6/h1-5H,(H3,8,9,10)

> <InChI Key_QSARr>
LUBJCRLGQSPQNN-UHFFFAOYSA-N

> <LogKOC>
1.35

$$$$
100040
  -INDIGO-08031722282D

 26 26  0  0  0  0  0  0  0  0999 V2000
   -0.0000    0.0000    0.0000 N   0  0  0  0  0  0  0  0  0  0  0  0
    0.7999   -1.3856    0.0000 C   0  0  0  0  0  0  0  0  0  0  0  0
    0.5911   -2.9720    0.0000 H   0  0  0  0  0  0  0  0  0  0  0  0
   -0.4693   -2.3596    0.0000 H   0  0  0  0  0  0  0  0  0  0  0  0
    2.4001   -1.3856    0.0000 C   0  0  0  0  0  0  0  0  0  0  0  0
    4.0000   -1.3856    0.0000 H   0  0  0  0  0  0  0  0  0  0  0  0
    3.2000   -2.7712    0.0000 H   0  0  0  0  0  0  0  0  0  0  0  0
    1.6001   -2.7712    0.0000 Cl  0  0  0  0  0  0  0  0  0  0  0  0
    0.7999    1.3856    0.0000 C   0  0  0  0  0  0  0  0  0  0  0  0
   -0.4693    2.3596    0.0000 H   0  0  0  0  0  0  0  0  0  0  0  0
    0.5911    2.9720    0.0000 H   0  0  0  0  0  0  0  0  0  0  0  0
    2.4001    1.3856    0.0000 C   0  0  0  0  0  0  0  0  0  0  0  0
    3.2000    2.7712    0.0000 H   0  0  0  0  0  0  0  0  0  0  0  0
    4.0000    1.3856    0.0000 H   0  0  0  0  0  0  0  0  0  0  0  0
    1.6001    2.7712    0.0000 Cl  0  0  0  0  0  0  0  0  0  0  0  0
   -1.6000    0.0000    0.0000 C   0  0  0  0  0  0  0  0  0  0  0  0
   -2.4000    1.3856    0.0000 C   0  0  0  0  0  0  0  0  0  0  0  0
   -1.6000    2.7713    0.0000 H   0  0  0  0  0  0  0  0  0  0  0  0
   -4.0001    1.3856    0.0000 N   0  0  0  0  0  0  0  0  0  0  0  0
   -4.8000    2.7713    0.0000 H   0  0  0  0  0  0  0  0  0  0  0  0
   -4.8000    0.0000    0.0000 C   0  0  0  0  0  0  0  0  0  0  0  0
   -6.4000    0.0000    0.0000 O   0  0  0  0  0  0  0  0  0  0  0  0
   -4.0001   -1.3856    0.0000 N   0  0  0  0  0  0  0  0  0  0  0  0
   -4.8000   -2.7712    0.0000 H   0  0  0  0  0  0  0  0  0  0  0  0
   -2.4000   -1.3856    0.0000 C   0  0  0  0  0  0  0  0  0  0  0  0
   -1.6000   -2.7712    0.0000 O   0  0  0  0  0  0  0  0  0  0  0  0
  1  2  1  0  0  0  0
  2  3  1  0  0  0  0
  2  4  1  0  0  0  0
  2  5  1  0  0  0  0
  5  6  1  0  0  0  0
  5  7  1  0  0  0  0
  5  8  1  0  0  0  0
  1  9  1  0  0  0  0
  9 10  1  0  0  0  0
  9 11  1  0  0  0  0
  9 12  1  0  0  0  0
 12 13  1  0  0  0  0
 12 14  1  0  0  0  0
 12 15  1  0  0  0  0
  1 16  1  0  0  0  0
 16 17  2  0  0  0  0
 17 18  1  0  0  0  0
 17 19  1  0  0  0  0
 19 20  1  0  0  0  0
 19 21  1  0  0  0  0
 21 22  2  0  0  0  0
 21 23  1  0  0  0  0
 23 24  1  0  0  0  0
 23 25  1  0  0  0  0
 25 16  1  0  0  0  0
 25 26  2  0  0  0  0
M  END
> <ChemID>
100040

> <source_casrn>
66-75-1

> <CAS>
66-75-1

> <SMILES>
O=C1NC=C(C(=O)N1)N(CCCl)CCCl

> <NAME>
URACIL MUSTARD

> <preferred_name>
Uracil mustard

> <iupac>
5-[bis(2-chloroethyl)amino]pyrimidine-2,4(1H,3H)-dione

> <MPID>
99317

> <dsstox_substance_id>
DTXSID8026270

> <Canonical_QSARr>
O=C1NC=C(C(=O)N1)N(CCCl)CCCl

> <InChI_Code_QSARr>
InChI=1S/C8H11Cl2N3O2/c9-1-3-13(4-2-10)6-5-11-8(15)12-7(6)14/h5H,1-4H2,(H2,11,12,14,15)

> <InChI Key_QSARr>
IDPUKCWIGUEADI-UHFFFAOYSA-N

> <LogKOC>
1.46

$$$$
100044
  -INDIGO-08031722282D

 15 14  0  0  0  0  0  0  0  0999 V2000
    2.7713   -0.0000    0.0000 C   0  0  0  0  0  0  0  0  0  0  0  0
    4.1569   -0.8000    0.0000 H   0  0  0  0  0  0  0  0  0  0  0  0
    4.1569    0.8000    0.0000 H   0  0  0  0  0  0  0  0  0  0  0  0
    2.7713   -1.6000    0.0000 H   0  0  0  0  0  0  0  0  0  0  0  0
    1.3856    0.8000    0.0000 C   0  0  0  0  0  0  0  0  0  0  0  0
    0.7734    2.2782    0.0000 H   0  0  0  0  0  0  0  0  0  0  0  0
    1.9979    2.2782    0.0000 H   0  0  0  0  0  0  0  0  0  0  0  0
    0.0001   -0.0000    0.0000 C   0  0  0  0  0  0  0  0  0  0  0  0
    0.6123   -1.4782    0.0000 H   0  0  0  0  0  0  0  0  0  0  0  0
   -0.6123   -1.4782    0.0000 H   0  0  0  0  0  0  0  0  0  0  0  0
   -1.3856    0.8000    0.0000 C   0  0  0  0  0  0  0  0  0  0  0  0
   -1.9979    2.2782    0.0000 H   0  0  0  0  0  0  0  0  0  0  0  0
   -0.7734    2.2782    0.0000 H   0  0  0  0  0  0  0  0  0  0  0  0
   -2.7713   -0.0000    0.0000 O   0  0  0  0  0  0  0  0  0  0  0  0
   -4.1569    0.8000    0.0000 H   0  0  0  0  0  0  0  0  0  0  0  0
  1  2  1  0  0  0  0
  1  3  1  0  0  0  0
  1  4  1  0  0  0  0
  1  5  1  0  0  0  0
  5  6  1  0  0  0  0
  5  7  1  0  0  0  0
  5  8  1  0  0  0  0
  8  9  1  0  0  0  0
  8 10  1  0  0  0  0
  8 11  1  0  0  0  0
 11 12  1  0  0  0  0
 11 13  1  0  0  0  0
 11 14  1  0  0  0  0
 14 15  1  0  0  0  0
M  END
> <ChemID>
100044

> <source_casrn>
71-36-3

> <CAS>
71-36-3

> <SMILES>
CCCCO

> <NAME>
1-BUTANOL

> <preferred_name>
1-Butanol

> <iupac>
butan-1-ol

> <MPID>
99321

> <dsstox_substance_id>
DTXSID1021740

> <Canonical_QSARr>
CCCCO

> <InChI_Code_QSARr>
InChI=1S/C4H10O/c1-2-3-4-5/h5H,2-4H2,1H3

> <InChI Key_QSARr>
LRHPLDYGYMQRHN-UHFFFAOYSA-N

> <LogKOC>
0.5

$$$$
100049
  -INDIGO-08031722282D

 36 37  0  0  0  0  0  0  0  0999 V2000
   -1.0284    1.2257    0.0000 Cl  0  0  0  0  0  0  0  0  0  0  0  0
    0.5472    1.5035    0.0000 C   0  0  0  0  0  0  0  0  0  0  0  0
   -0.0000    0.0000    0.0000 C   0  0  0  0  0  0  0  0  0  0  0  0
   -0.5473   -1.5035    0.0000 H   0  0  0  0  0  0  0  0  0  0  0  0
    1.5034   -0.5472    0.0000 C   0  0  0  0  0  0  0  0  0  0  0  0
    1.7814   -2.1229    0.0000 C   0  0  0  0  0  0  0  0  0  0  0  0
    0.5556   -3.1514    0.0000 H   0  0  0  0  0  0  0  0  0  0  0  0
    3.2849   -2.6702    0.0000 C   0  0  0  0  0  0  0  0  0  0  0  0
    3.5627   -4.2458    0.0000 H   0  0  0  0  0  0  0  0  0  0  0  0
    4.5105   -1.6417    0.0000 C   0  0  0  0  0  0  0  0  0  0  0  0
    6.0139   -2.1889    0.0000 O   0  0  0  0  0  0  0  0  0  0  0  0
    6.2920   -3.7646    0.0000 C   0  0  0  0  0  0  0  0  0  0  0  0
    7.7954   -4.3119    0.0000 H   0  0  0  0  0  0  0  0  0  0  0  0
    6.5697   -5.3403    0.0000 H   0  0  0  0  0  0  0  0  0  0  0  0
    7.5176   -2.7362    0.0000 H   0  0  0  0  0  0  0  0  0  0  0  0
    4.2327   -0.0660    0.0000 C   0  0  0  0  0  0  0  0  0  0  0  0
    5.4583    0.9624    0.0000 H   0  0  0  0  0  0  0  0  0  0  0  0
    2.7293    0.4812    0.0000 C   0  0  0  0  0  0  0  0  0  0  0  0
    2.4512    2.0569    0.0000 H   0  0  0  0  0  0  0  0  0  0  0  0
   -1.5999    0.0000    0.0000 C   0  0  0  0  0  0  0  0  0  0  0  0
   -2.3999    1.3857    0.0000 C   0  0  0  0  0  0  0  0  0  0  0  0
   -1.5999    2.7712    0.0000 H   0  0  0  0  0  0  0  0  0  0  0  0
   -4.0000    1.3857    0.0000 C   0  0  0  0  0  0  0  0  0  0  0  0
   -4.8000    2.7712    0.0000 H   0  0  0  0  0  0  0  0  0  0  0  0
   -4.8000    0.0000    0.0000 C   0  0  0  0  0  0  0  0  0  0  0  0
   -6.3999    0.0000    0.0000 O   0  0  0  0  0  0  0  0  0  0  0  0
   -7.2001   -1.3857    0.0000 C   0  0  0  0  0  0  0  0  0  0  0  0
   -8.8000   -1.3857    0.0000 H   0  0  0  0  0  0  0  0  0  0  0  0
   -8.0000   -2.7712    0.0000 H   0  0  0  0  0  0  0  0  0  0  0  0
   -8.0000    0.0000    0.0000 H   0  0  0  0  0  0  0  0  0  0  0  0
   -4.0000   -1.3857    0.0000 C   0  0  0  0  0  0  0  0  0  0  0  0
   -4.8000   -2.7712    0.0000 H   0  0  0  0  0  0  0  0  0  0  0  0
   -2.3999   -1.3857    0.0000 C   0  0  0  0  0  0  0  0  0  0  0  0
   -1.5999   -2.7712    0.0000 H   0  0  0  0  0  0  0  0  0  0  0  0
    1.0944    3.0070    0.0000 Cl  0  0  0  0  0  0  0  0  0  0  0  0
   -0.4812    2.7292    0.0000 Cl  0  0  0  0  0  0  0  0  0  0  0  0
  1  2  1  0  0  0  0
  2  3  1  0  0  0  0
  3  4  1  0  0  0  0
  3  5  1  0  0  0  0
  5  6  1  0  0  0  0
  6  7  1  0  0  0  0
  6  8  2  0  0  0  0
  8  9  1  0  0  0  0
  8 10  1  0  0  0  0
 10 11  1  0  0  0  0
 11 12  1  0  0  0  0
 12 13  1  0  0  0  0
 12 14  1  0  0  0  0
 12 15  1  0  0  0  0
 10 16  2  0  0  0  0
 16 17  1  0  0  0  0
 16 18  1  0  0  0  0
 18  5  2  0  0  0  0
 18 19  1  0  0  0  0
  3 20  1  0  0  0  0
 20 21  1  0  0  0  0
 21 22  1  0  0  0  0
 21 23  2  0  0  0  0
 23 24  1  0  0  0  0
 23 25  1  0  0  0  0
 25 26  1  0  0  0  0
 26 27  1  0  0  0  0
 27 28  1  0  0  0  0
 27 29  1  0  0  0  0
 27 30  1  0  0  0  0
 25 31  2  0  0  0  0
 31 32  1  0  0  0  0
 31 33  1  0  0  0  0
 33 20  2  0  0  0  0
 33 34  1  0  0  0  0
  2 35  1  0  0  0  0
  2 36  1  0  0  0  0
M  END
> <ChemID>
100049

> <source_casrn>
72-43-5

> <CAS>
72-43-5

> <SMILES>
COc1ccc(cc1)C(c1ccc(cc1)OC)C(Cl)(Cl)Cl

> <NAME>
METHOXYCHLOR

> <preferred_name>
Methoxychlor

> <iupac>
1,1'-(2,2,2-trichloroethane-1,1-diyl)bis(4-methoxybenzene)

> <MPID>
99326

> <dsstox_substance_id>
DTXSID9020827

> <Canonical_QSARr>
COc1ccc(cc1)C(c1ccc(cc1)OC)C(Cl)(Cl)Cl

> <InChI_Code_QSARr>
InChI=1S/C16H15Cl3O2/c1-20-13-7-3-11(4-8-13)15(16(17,18)19)12-5-9-14(21-2)10-6-12/h3-10,15H,1-2H3

> <InChI Key_QSARr>
IAKOZHOLGAGEJT-UHFFFAOYSA-N

> <LogKOC>
4.9

$$$$
100053
  -INDIGO-08031722282D

  5  4  0  0  0  0  0  0  0  0999 V2000
   -0.8000   -1.3856    0.0000 Cl  0  0  0  0  0  0  0  0  0  0  0  0
    0.0000    0.0000    0.0000 C   0  0  0  0  0  0  0  0  0  0  0  0
    0.8000    1.3856    0.0000 H   0  0  0  0  0  0  0  0  0  0  0  0
   -1.3856    0.8000    0.0000 H   0  0  0  0  0  0  0  0  0  0  0  0
    1.3856   -0.8000    0.0000 Cl  0  0  0  0  0  0  0  0  0  0  0  0
  1  2  1  0  0  0  0
  2  3  1  0  0  0  0
  2  4  1  0  0  0  0
  2  5  1  0  0  0  0
M  END
> <ChemID>
100053

> <source_casrn>
75-09-2

> <CAS>
75-09-2

> <SMILES>
ClCCl

> <NAME>
DICHLOROMETHANE

> <preferred_name>
Dichloromethane

> <iupac>
dichloromethane

> <MPID>
99330

> <dsstox_substance_id>
DTXSID0020868

> <Canonical_QSARr>
ClCCl

> <InChI_Code_QSARr>
InChI=1S/CH2Cl2/c2-1-3/h1H2

> <InChI Key_QSARr>
YMWUJEATGCHHMB-UHFFFAOYSA-N

> <LogKOC>
1.44

$$$$
100057
  -INDIGO-08031722282D

  8  7  0  0  0  0  0  0  0  0999 V2000
    0.0000    0.0000    0.0000 C   0  0  0  0  0  0  0  0  0  0  0  0
    1.6000   -0.0000    0.0000 H   0  0  0  0  0  0  0  0  0  0  0  0
    0.8000   -1.3856    0.0000 H   0  0  0  0  0  0  0  0  0  0  0  0
    0.8000    1.3856    0.0000 H   0  0  0  0  0  0  0  0  0  0  0  0
   -1.6000    0.0000    0.0000 C   0  0  0  0  0  0  0  0  0  0  0  0
   -3.2000    0.0000    0.0000 H   0  0  0  0  0  0  0  0  0  0  0  0
   -2.4000   -1.3856    0.0000 Cl  0  0  0  0  0  0  0  0  0  0  0  0
   -2.4000    1.3856    0.0000 Cl  0  0  0  0  0  0  0  0  0  0  0  0
  1  2  1  0  0  0  0
  1  3  1  0  0  0  0
  1  4  1  0  0  0  0
  1  5  1  0  0  0  0
  5  6  1  0  0  0  0
  5  7  1  0  0  0  0
  5  8  1  0  0  0  0
M  END
> <ChemID>
100057

> <source_casrn>
75-34-3

> <CAS>
75-34-3

> <SMILES>
CC(Cl)Cl

> <NAME>
1,1-DICHLOROETHANE

> <preferred_name>
1,1-Dichloroethane

> <iupac>
1,1-dichloroethane

> <MPID>
99334

> <dsstox_substance_id>
DTXSID1020437

> <Canonical_QSARr>
CC(Cl)Cl

> <InChI_Code_QSARr>
InChI=1S/C2H4Cl2/c1-2(3)4/h2H,1H3

> <InChI Key_QSARr>
SCYULBFZEHDVBN-UHFFFAOYSA-N

> <LogKOC>
1.48

$$$$
100061
  -INDIGO-08031722282D

  8  7  0  0  0  0  0  0  0  0999 V2000
   -0.8000   -1.3856    0.0000 Cl  0  0  0  0  0  0  0  0  0  0  0  0
   -0.0000    0.0000    0.0000 C   0  0  0  0  0  0  0  0  0  0  0  0
    1.6000    0.0000    0.0000 C   0  0  0  0  0  0  0  0  0  0  0  0
    2.4000   -1.3856    0.0000 O   0  0  0  0  0  0  0  0  0  0  0  0
    2.4000    1.3856    0.0000 O   0  0  0  0  0  0  0  0  0  0  0  0
    4.0000    1.3856    0.0000 H   0  0  0  0  0  0  0  0  0  0  0  0
   -1.6000    0.0000    0.0000 Cl  0  0  0  0  0  0  0  0  0  0  0  0
   -0.8000    1.3856    0.0000 Cl  0  0  0  0  0  0  0  0  0  0  0  0
  1  2  1  0  0  0  0
  2  3  1  0  0  0  0
  3  4  2  0  0  0  0
  3  5  1  0  0  0  0
  5  6  1  0  0  0  0
  2  7  1  0  0  0  0
  2  8  1  0  0  0  0
M  END
> <ChemID>
100061

> <source_casrn>
76-03-9

> <CAS>
76-03-9

> <SMILES>
OC(=O)C(Cl)(Cl)Cl

> <NAME>
TRICHLOROACETIC ACID

> <preferred_name>
Trichloroacetic acid

> <iupac>
trichloroacetic acid

> <MPID>
99338

> <dsstox_substance_id>
DTXSID1021378

> <Canonical_QSARr>
OC(=O)C(Cl)(Cl)Cl

> <InChI_Code_QSARr>
InChI=1S/C2HCl3O2/c3-2(4,5)1(6)7/h(H,6,7)

> <InChI Key_QSARr>
YNJBWRMUSHSURL-UHFFFAOYSA-N

> <LogKOC>
0.3

$$$$
100065
  -INDIGO-08031722282D

 24 24  0  0  0  0  0  0  0  0999 V2000
    1.5756   -0.2778    0.0000 C   0  0  0  0  0  0  0  0  0  0  0  0
    3.1514   -0.5557    0.0000 H   0  0  0  0  0  0  0  0  0  0  0  0
    2.6042    0.9478    0.0000 H   0  0  0  0  0  0  0  0  0  0  0  0
    2.6042   -1.5035    0.0000 H   0  0  0  0  0  0  0  0  0  0  0  0
    0.0000    0.0000    0.0000 C   0  0  0  0  0  0  0  0  0  0  0  0
   -1.3856    0.8000    0.0000 C   0  0  0  0  0  0  0  0  0  0  0  0
   -0.3572    2.0257    0.0000 H   0  0  0  0  0  0  0  0  0  0  0  0
   -2.4141    2.0257    0.0000 H   0  0  0  0  0  0  0  0  0  0  0  0
   -2.7713    0.0000    0.0000 C   0  0  0  0  0  0  0  0  0  0  0  0
   -4.1569    0.8000    0.0000 C   0  0  0  0  0  0  0  0  0  0  0  0
   -5.5426    1.6001    0.0000 H   0  0  0  0  0  0  0  0  0  0  0  0
   -5.5426    0.0000    0.0000 H   0  0  0  0  0  0  0  0  0  0  0  0
   -4.1569    2.4000    0.0000 H   0  0  0  0  0  0  0  0  0  0  0  0
   -2.7713   -1.6000    0.0000 C   0  0  0  0  0  0  0  0  0  0  0  0
   -4.1569   -2.4000    0.0000 H   0  0  0  0  0  0  0  0  0  0  0  0
   -1.3856   -2.4000    0.0000 C   0  0  0  0  0  0  0  0  0  0  0  0
   -1.3856   -4.0000    0.0000 O   0  0  0  0  0  0  0  0  0  0  0  0
    0.0000   -1.6000    0.0000 C   0  0  0  0  0  0  0  0  0  0  0  0
    0.5472   -3.1035    0.0000 H   0  0  0  0  0  0  0  0  0  0  0  0
    1.5756   -1.3222    0.0000 H   0  0  0  0  0  0  0  0  0  0  0  0
    0.5472    1.5035    0.0000 C   0  0  0  0  0  0  0  0  0  0  0  0
    1.0945    3.0070    0.0000 H   0  0  0  0  0  0  0  0  0  0  0  0
    2.1229    1.7814    0.0000 H   0  0  0  0  0  0  0  0  0  0  0  0
    0.0000    3.0070    0.0000 H   0  0  0  0  0  0  0  0  0  0  0  0
  1  2  1  0  0  0  0
  1  3  1  0  0  0  0
  1  4  1  0  0  0  0
  1  5  1  0  0  0  0
  5  6  1  0  0  0  0
  6  7  1  0  0  0  0
  6  8  1  0  0  0  0
  6  9  1  0  0  0  0
  9 10  1  0  0  0  0
 10 11  1  0  0  0  0
 10 12  1  0  0  0  0
 10 13  1  0  0  0  0
  9 14  2  0  0  0  0
 14 15  1  0  0  0  0
 14 16  1  0  0  0  0
 16 17  2  0  0  0  0
 16 18  1  0  0  0  0
 18  5  1  0  0  0  0
 18 19  1  0  0  0  0
 18 20  1  0  0  0  0
  5 21  1  0  0  0  0
 21 22  1  0  0  0  0
 21 23  1  0  0  0  0
 21 24  1  0  0  0  0
M  END
> <ChemID>
100065

> <source_casrn>
78-59-1

> <CAS>
78-59-1

> <SMILES>
CC1CC(C)(C)CC(=O)C=1

> <NAME>
ISOPHORONE

> <preferred_name>
Isophorone

> <iupac>
3,5,5-trimethylcyclohex-2-en-1-one

> <MPID>
99342

> <dsstox_substance_id>
DTXSID8020759

> <Canonical_QSARr>
CC1CC(C)(C)CC(=O)C=1

> <InChI_Code_QSARr>
InChI=1S/C9H14O/c1-7-4-8(10)6-9(2,3)5-7/h4H,5-6H2,1-3H3

> <InChI Key_QSARr>
HJOVHMDZYOCNQW-UHFFFAOYSA-N

> <LogKOC>
1.4

$$$$
100069
  -INDIGO-08031722282D

 10  9  0  0  0  0  0  0  0  0999 V2000
    1.3856   -0.8000    0.0000 N   0  0  0  0  0  0  0  0  0  0  0  0
    2.7713    0.0000    0.0000 H   0  0  0  0  0  0  0  0  0  0  0  0
    1.3856   -2.4000    0.0000 H   0  0  0  0  0  0  0  0  0  0  0  0
    0.0000    0.0000    0.0000 C   0  0  0  0  0  0  0  0  0  0  0  0
    0.0000    1.6000    0.0000 O   0  0  0  0  0  0  0  0  0  0  0  0
   -1.3856   -0.8000    0.0000 C   0  0  0  0  0  0  0  0  0  0  0  0
   -1.3856   -2.4000    0.0000 H   0  0  0  0  0  0  0  0  0  0  0  0
   -2.7713    0.0000    0.0000 C   0  0  0  0  0  0  0  0  0  0  0  0
   -4.1569   -0.8000    0.0000 H   0  0  0  0  0  0  0  0  0  0  0  0
   -2.7713    1.6000    0.0000 H   0  0  0  0  0  0  0  0  0  0  0  0
  1  2  1  0  0  0  0
  1  3  1  0  0  0  0
  1  4  1  0  0  0  0
  4  5  2  0  0  0  0
  4  6  1  0  0  0  0
  6  7  1  0  0  0  0
  6  8  2  0  0  0  0
  8  9  1  0  0  0  0
  8 10  1  0  0  0  0
M  END
> <ChemID>
100069

> <source_casrn>
79-06-1

> <CAS>
79-06-1

> <SMILES>
C=CC(N)=O

> <NAME>
ACRYLAMIDE

> <preferred_name>
Acrylamide

> <iupac>
prop-2-enamide

> <MPID>
99346

> <dsstox_substance_id>
DTXSID5020027

> <Canonical_QSARr>
C=CC(N)=O

> <InChI_Code_QSARr>
InChI=1S/C3H5NO/c1-2-3(4)5/h2H,1H2,(H2,4,5)

> <InChI Key_QSARr>
HRPVXLWXLXDGHG-UHFFFAOYSA-N

> <LogKOC>
1.7

$$$$
100073
  -INDIGO-08031722282D

 14 14  0  0  0  0  0  0  0  0999 V2000
    0.0000    2.7713    0.0000 Cl  0  0  0  0  0  0  0  0  0  0  0  0
   -0.8000    1.3856    0.0000 C   0  0  0  0  0  0  0  0  0  0  0  0
    0.0000   -0.0000    0.0000 C   0  0  0  0  0  0  0  0  0  0  0  0
    1.6000   -0.0000    0.0000 N   0  0  0  0  0  0  0  0  0  0  0  0
    2.4000    1.3856    0.0000 O   0  0  0  0  0  0  0  0  0  0  0  0
    2.4000   -1.3856    0.0000 O   0  0  0  0  0  0  0  0  0  0  0  0
   -0.8000   -1.3856    0.0000 C   0  0  0  0  0  0  0  0  0  0  0  0
    0.0000   -2.7713    0.0000 Cl  0  0  0  0  0  0  0  0  0  0  0  0
   -2.4000   -1.3856    0.0000 C   0  0  0  0  0  0  0  0  0  0  0  0
   -3.2000   -2.7713    0.0000 Cl  0  0  0  0  0  0  0  0  0  0  0  0
   -3.2000   -0.0000    0.0000 C   0  0  0  0  0  0  0  0  0  0  0  0
   -4.8000   -0.0000    0.0000 Cl  0  0  0  0  0  0  0  0  0  0  0  0
   -2.4000    1.3856    0.0000 C   0  0  0  0  0  0  0  0  0  0  0  0
   -3.2000    2.7713    0.0000 Cl  0  0  0  0  0  0  0  0  0  0  0  0
  1  2  1  0  0  0  0
  2  3  1  0  0  0  0
  3  4  1  0  0  0  0
  4  5  2  0  0  0  0
  4  6  1  0  0  0  0
  3  7  2  0  0  0  0
  7  8  1  0  0  0  0
  7  9  1  0  0  0  0
  9 10  1  0  0  0  0
  9 11  2  0  0  0  0
 11 12  1  0  0  0  0
 11 13  1  0  0  0  0
 13  2  2  0  0  0  0
 13 14  1  0  0  0  0
M  CHG  2   4   1   6  -1
M  END
> <ChemID>
100073

> <source_casrn>
82-68-8

> <CAS>
82-68-8

> <SMILES>
[O-][N+](=O)c1c(Cl)c(Cl)c(Cl)c(Cl)c1Cl

> <NAME>
PENTACHLORONITROBENZENE

> <preferred_name>
Pentachloronitrobenzene

> <iupac>
1,2,3,4,5-pentachloro-6-nitrobenzene

> <MPID>
99350

> <dsstox_substance_id>
DTXSID2021105

> <Canonical_QSARr>
[O-][N+](=O)c1c(Cl)c(Cl)c(Cl)c(Cl)c1Cl

> <InChI_Code_QSARr>
InChI=1S/C6Cl5NO2/c7-1-2(8)4(10)6(12(13)14)5(11)3(1)9

> <InChI Key_QSARr>
LKPLKUMXSAEKID-UHFFFAOYSA-N

> <LogKOC>
3.98

$$$$
100077
  -INDIGO-08031722282D

 30 30  0  0  0  0  0  0  0  0999 V2000
    4.7999    2.7712    0.0000 C   0  0  0  0  0  0  0  0  0  0  0  0
    6.4000    2.7712    0.0000 H   0  0  0  0  0  0  0  0  0  0  0  0
    5.6000    4.1569    0.0000 H   0  0  0  0  0  0  0  0  0  0  0  0
    5.6000    1.3856    0.0000 H   0  0  0  0  0  0  0  0  0  0  0  0
    3.2001    2.7712    0.0000 C   0  0  0  0  0  0  0  0  0  0  0  0
    2.9911    4.3576    0.0000 H   0  0  0  0  0  0  0  0  0  0  0  0
    1.9307    3.7453    0.0000 H   0  0  0  0  0  0  0  0  0  0  0  0
    2.4000    1.3856    0.0000 O   0  0  0  0  0  0  0  0  0  0  0  0
    0.8000    1.3856    0.0000 C   0  0  0  0  0  0  0  0  0  0  0  0
   -0.0001    2.7712    0.0000 O   0  0  0  0  0  0  0  0  0  0  0  0
   -0.0001   -0.0000    0.0000 C   0  0  0  0  0  0  0  0  0  0  0  0
    0.8000   -1.3857    0.0000 C   0  0  0  0  0  0  0  0  0  0  0  0
    2.4000   -1.3857    0.0000 H   0  0  0  0  0  0  0  0  0  0  0  0
   -0.0001   -2.7713    0.0000 C   0  0  0  0  0  0  0  0  0  0  0  0
    0.8000   -4.1569    0.0000 H   0  0  0  0  0  0  0  0  0  0  0  0
   -1.5999   -2.7713    0.0000 C   0  0  0  0  0  0  0  0  0  0  0  0
   -2.4000   -4.1569    0.0000 H   0  0  0  0  0  0  0  0  0  0  0  0
   -2.4000   -1.3857    0.0000 C   0  0  0  0  0  0  0  0  0  0  0  0
   -4.0000   -1.3857    0.0000 H   0  0  0  0  0  0  0  0  0  0  0  0
   -1.5999   -0.0000    0.0000 C   0  0  0  0  0  0  0  0  0  0  0  0
   -2.4000    1.3856    0.0000 C   0  0  0  0  0  0  0  0  0  0  0  0
   -1.5999    2.7712    0.0000 O   0  0  0  0  0  0  0  0  0  0  0  0
   -4.0000    1.3856    0.0000 O   0  0  0  0  0  0  0  0  0  0  0  0
   -4.8001    2.7712    0.0000 C   0  0  0  0  0  0  0  0  0  0  0  0
   -3.5307    3.7453    0.0000 H   0  0  0  0  0  0  0  0  0  0  0  0
   -4.5911    4.3576    0.0000 H   0  0  0  0  0  0  0  0  0  0  0  0
   -6.3999    2.7712    0.0000 C   0  0  0  0  0  0  0  0  0  0  0  0
   -8.0000    2.7712    0.0000 H   0  0  0  0  0  0  0  0  0  0  0  0
   -7.2000    4.1569    0.0000 H   0  0  0  0  0  0  0  0  0  0  0  0
   -7.2000    1.3856    0.0000 H   0  0  0  0  0  0  0  0  0  0  0  0
  1  2  1  0  0  0  0
  1  3  1  0  0  0  0
  1  4  1  0  0  0  0
  1  5  1  0  0  0  0
  5  6  1  0  0  0  0
  5  7  1  0  0  0  0
  5  8  1  0  0  0  0
  8  9  1  0  0  0  0
  9 10  2  0  0  0  0
  9 11  1  0  0  0  0
 11 12  1  0  0  0  0
 12 13  1  0  0  0  0
 12 14  2  0  0  0  0
 14 15  1  0  0  0  0
 14 16  1  0  0  0  0
 16 17  1  0  0  0  0
 16 18  2  0  0  0  0
 18 19  1  0  0  0  0
 18 20  1  0  0  0  0
 20 11  2  0  0  0  0
 20 21  1  0  0  0  0
 21 22  2  0  0  0  0
 21 23  1  0  0  0  0
 23 24  1  0  0  0  0
 24 25  1  0  0  0  0
 24 26  1  0  0  0  0
 24 27  1  0  0  0  0
 27 28  1  0  0  0  0
 27 29  1  0  0  0  0
 27 30  1  0  0  0  0
M  END
> <ChemID>
100077

> <source_casrn>
84-66-2

> <CAS>
84-66-2

> <SMILES>
CCOC(=O)c1ccccc1C(=O)OCC

> <NAME>
DIETHYL PHTHALATE

> <preferred_name>
Diethyl phthalate

> <iupac>
diethyl benzene-1,2-dicarboxylate

> <MPID>
99354

> <dsstox_substance_id>
DTXSID7021780

> <Canonical_QSARr>
CCOC(=O)c1ccccc1C(=O)OCC

> <InChI_Code_QSARr>
InChI=1S/C12H14O4/c1-3-15-11(13)9-7-5-6-8-10(9)12(14)16-4-2/h5-8H,3-4H2,1-2H3

> <InChI Key_QSARr>
FLKPEMZONWLCSK-UHFFFAOYSA-N

> <LogKOC>
1.84

$$$$
100081
  -INDIGO-08031722282D

 54 54  0  0  0  0  0  0  0  0999 V2000
    7.2000   -1.3857    0.0000 O   0  0  0  0  0  0  0  0  0  0  0  0
    8.0002   -2.7713    0.0000 C   0  0  0  0  0  0  0  0  0  0  0  0
    9.6002   -2.7713    0.0000 O   0  0  0  0  0  0  0  0  0  0  0  0
   10.4000   -1.3857    0.0000 C   0  0  0  0  0  0  0  0  0  0  0  0
    9.1307   -0.4116    0.0000 H   0  0  0  0  0  0  0  0  0  0  0  0
   10.1913    0.2007    0.0000 H   0  0  0  0  0  0  0  0  0  0  0  0
   12.0000   -1.3857    0.0000 C   0  0  0  0  0  0  0  0  0  0  0  0
   13.2693   -2.3597    0.0000 H   0  0  0  0  0  0  0  0  0  0  0  0
   12.2087   -2.9719    0.0000 H   0  0  0  0  0  0  0  0  0  0  0  0
   12.8002   -0.0001    0.0000 C   0  0  0  0  0  0  0  0  0  0  0  0
   11.5305    0.9740    0.0000 H   0  0  0  0  0  0  0  0  0  0  0  0
   12.5911    1.5863    0.0000 H   0  0  0  0  0  0  0  0  0  0  0  0
   14.4002   -0.0001    0.0000 C   0  0  0  0  0  0  0  0  0  0  0  0
   15.6695   -0.9741    0.0000 H   0  0  0  0  0  0  0  0  0  0  0  0
   14.6089   -1.5863    0.0000 H   0  0  0  0  0  0  0  0  0  0  0  0
   15.2000    1.3857    0.0000 C   0  0  0  0  0  0  0  0  0  0  0  0
   13.9307    2.3596    0.0000 H   0  0  0  0  0  0  0  0  0  0  0  0
   14.9913    2.9720    0.0000 H   0  0  0  0  0  0  0  0  0  0  0  0
   16.8000    1.3857    0.0000 C   0  0  0  0  0  0  0  0  0  0  0  0
   18.4000    1.3857    0.0000 H   0  0  0  0  0  0  0  0  0  0  0  0
   17.6002    2.7713    0.0000 H   0  0  0  0  0  0  0  0  0  0  0  0
   17.6002   -0.0001    0.0000 H   0  0  0  0  0  0  0  0  0  0  0  0
    7.2000   -4.1569    0.0000 C   0  0  0  0  0  0  0  0  0  0  0  0
    5.6000   -4.1569    0.0000 C   0  0  0  0  0  0  0  0  0  0  0  0
    4.7998   -2.7713    0.0000 C   0  0  0  0  0  0  0  0  0  0  0  0
    5.6000   -1.3857    0.0000 O   0  0  0  0  0  0  0  0  0  0  0  0
    3.2002   -2.7713    0.0000 O   0  0  0  0  0  0  0  0  0  0  0  0
    2.4000   -1.3857    0.0000 C   0  0  0  0  0  0  0  0  0  0  0  0
    2.6087    0.2007    0.0000 H   0  0  0  0  0  0  0  0  0  0  0  0
    3.6693   -0.4116    0.0000 H   0  0  0  0  0  0  0  0  0  0  0  0
    0.8000   -1.3857    0.0000 C   0  0  0  0  0  0  0  0  0  0  0  0
    0.5913   -2.9719    0.0000 H   0  0  0  0  0  0  0  0  0  0  0  0
   -0.4693   -2.3597    0.0000 H   0  0  0  0  0  0  0  0  0  0  0  0
    0.0002   -0.0001    0.0000 C   0  0  0  0  0  0  0  0  0  0  0  0
    0.2089    1.5863    0.0000 H   0  0  0  0  0  0  0  0  0  0  0  0
    1.2695    0.9740    0.0000 H   0  0  0  0  0  0  0  0  0  0  0  0
   -1.5998   -0.0001    0.0000 C   0  0  0  0  0  0  0  0  0  0  0  0
   -1.8089   -1.5863    0.0000 H   0  0  0  0  0  0  0  0  0  0  0  0
   -2.8695   -0.9741    0.0000 H   0  0  0  0  0  0  0  0  0  0  0  0
   -2.4000    1.3857    0.0000 C   0  0  0  0  0  0  0  0  0  0  0  0
   -2.1913    2.9720    0.0000 H   0  0  0  0  0  0  0  0  0  0  0  0
   -1.1307    2.3597    0.0000 H   0  0  0  0  0  0  0  0  0  0  0  0
   -4.0000    1.3857    0.0000 C   0  0  0  0  0  0  0  0  0  0  0  0
   -5.6000    1.3857    0.0000 H   0  0  0  0  0  0  0  0  0  0  0  0
   -4.8002    2.7713    0.0000 H   0  0  0  0  0  0  0  0  0  0  0  0
   -4.8002   -0.0001    0.0000 H   0  0  0  0  0  0  0  0  0  0  0  0
    4.7998   -5.5426    0.0000 C   0  0  0  0  0  0  0  0  0  0  0  0
    3.2002   -5.5426    0.0000 H   0  0  0  0  0  0  0  0  0  0  0  0
    5.6000   -6.9282    0.0000 C   0  0  0  0  0  0  0  0  0  0  0  0
    4.7998   -8.3138    0.0000 H   0  0  0  0  0  0  0  0  0  0  0  0
    7.2000   -6.9282    0.0000 C   0  0  0  0  0  0  0  0  0  0  0  0
    8.0002   -8.3138    0.0000 H   0  0  0  0  0  0  0  0  0  0  0  0
    8.0002   -5.5426    0.0000 C   0  0  0  0  0  0  0  0  0  0  0  0
    9.6002   -5.5426    0.0000 H   0  0  0  0  0  0  0  0  0  0  0  0
  1  2  2  0  0  0  0
  2  3  1  0  0  0  0
  3  4  1  0  0  0  0
  4  5  1  0  0  0  0
  4  6  1  0  0  0  0
  4  7  1  0  0  0  0
  7  8  1  0  0  0  0
  7  9  1  0  0  0  0
  7 10  1  0  0  0  0
 10 11  1  0  0  0  0
 10 12  1  0  0  0  0
 10 13  1  0  0  0  0
 13 14  1  0  0  0  0
 13 15  1  0  0  0  0
 13 16  1  0  0  0  0
 16 17  1  0  0  0  0
 16 18  1  0  0  0  0
 16 19  1  0  0  0  0
 19 20  1  0  0  0  0
 19 21  1  0  0  0  0
 19 22  1  0  0  0  0
  2 23  1  0  0  0  0
 23 24  1  0  0  0  0
 24 25  1  0  0  0  0
 25 26  2  0  0  0  0
 25 27  1  0  0  0  0
 27 28  1  0  0  0  0
 28 29  1  0  0  0  0
 28 30  1  0  0  0  0
 28 31  1  0  0  0  0
 31 32  1  0  0  0  0
 31 33  1  0  0  0  0
 31 34  1  0  0  0  0
 34 35  1  0  0  0  0
 34 36  1  0  0  0  0
 34 37  1  0  0  0  0
 37 38  1  0  0  0  0
 37 39  1  0  0  0  0
 37 40  1  0  0  0  0
 40 41  1  0  0  0  0
 40 42  1  0  0  0  0
 40 43  1  0  0  0  0
 43 44  1  0  0  0  0
 43 45  1  0  0  0  0
 43 46  1  0  0  0  0
 24 47  2  0  0  0  0
 47 48  1  0  0  0  0
 47 49  1  0  0  0  0
 49 50  1  0  0  0  0
 49 51  2  0  0  0  0
 51 52  1  0  0  0  0
 51 53  1  0  0  0  0
 53 23  2  0  0  0  0
 53 54  1  0  0  0  0
M  END
> <ChemID>
100081

> <source_casrn>
84-75-3

> <CAS>
84-75-3

> <SMILES>
CCCCCCOC(=O)c1ccccc1C(=O)OCCCCCC

> <NAME>
DIHEXYL PHTHALATE

> <preferred_name>
Dihexyl phthalate

> <iupac>
dihexyl benzene-1,2-dicarboxylate

> <MPID>
99358

> <dsstox_substance_id>
DTXSID6025068

> <Canonical_QSARr>
CCCCCCOC(=O)c1ccccc1C(=O)OCCCCCC

> <InChI_Code_QSARr>
InChI=1S/C20H30O4/c1-3-5-7-11-15-23-19(21)17-13-9-10-14-18(17)20(22)24-16-12-8-6-4-2/h9-10,13-14H,3-8,11-12,15-16H2,1-2H3

> <InChI Key_QSARr>
KCXZNSGUUQJJTR-UHFFFAOYSA-N

> <LogKOC>
4.72

$$$$
100086
  -INDIGO-08031722282D

 18 18  0  0  0  0  0  0  0  0999 V2000
   -0.0001   -0.0000    0.0000 C   0  0  0  0  0  0  0  0  0  0  0  0
    1.3857    0.8000    0.0000 C   0  0  0  0  0  0  0  0  0  0  0  0
    1.9980    2.2782    0.0000 H   0  0  0  0  0  0  0  0  0  0  0  0
    0.7734    2.2782    0.0000 H   0  0  0  0  0  0  0  0  0  0  0  0
    2.7713   -0.0000    0.0000 C   0  0  0  0  0  0  0  0  0  0  0  0
    2.7713   -1.6000    0.0000 O   0  0  0  0  0  0  0  0  0  0  0  0
    4.1569    0.8000    0.0000 O   0  0  0  0  0  0  0  0  0  0  0  0
    5.5426   -0.0000    0.0000 H   0  0  0  0  0  0  0  0  0  0  0  0
   -0.0001   -1.6000    0.0000 C   0  0  0  0  0  0  0  0  0  0  0  0
    1.3857   -2.4000    0.0000 Cl  0  0  0  0  0  0  0  0  0  0  0  0
   -1.3857   -2.4000    0.0000 C   0  0  0  0  0  0  0  0  0  0  0  0
   -1.3857   -4.0000    0.0000 Cl  0  0  0  0  0  0  0  0  0  0  0  0
   -2.7713   -1.6000    0.0000 C   0  0  0  0  0  0  0  0  0  0  0  0
   -4.1569   -2.4000    0.0000 H   0  0  0  0  0  0  0  0  0  0  0  0
   -2.7713   -0.0000    0.0000 C   0  0  0  0  0  0  0  0  0  0  0  0
   -4.1569    0.8000    0.0000 H   0  0  0  0  0  0  0  0  0  0  0  0
   -1.3857    0.8000    0.0000 C   0  0  0  0  0  0  0  0  0  0  0  0
   -1.3857    2.4000    0.0000 Cl  0  0  0  0  0  0  0  0  0  0  0  0
  1  2  1  0  0  0  0
  2  3  1  0  0  0  0
  2  4  1  0  0  0  0
  2  5  1  0  0  0  0
  5  6  2  0  0  0  0
  5  7  1  0  0  0  0
  7  8  1  0  0  0  0
  1  9  1  0  0  0  0
  9 10  1  0  0  0  0
  9 11  2  0  0  0  0
 11 12  1  0  0  0  0
 11 13  1  0  0  0  0
 13 14  1  0  0  0  0
 13 15  2  0  0  0  0
 15 16  1  0  0  0  0
 15 17  1  0  0  0  0
 17  1  2  0  0  0  0
 17 18  1  0  0  0  0
M  END
> <ChemID>
100086

> <source_casrn>
85-34-7

> <CAS>
85-34-7

> <SMILES>
OC(=O)Cc1c(Cl)c(Cl)ccc1Cl

> <NAME>
FENAC

> <preferred_name>
Chlorfenac

> <iupac>
(2,3,6-trichlorophenyl)acetic acid

> <MPID>
99363

> <dsstox_substance_id>
DTXSID2040284

> <Canonical_QSARr>
OC(=O)Cc1c(Cl)c(Cl)ccc1Cl

> <InChI_Code_QSARr>
InChI=1S/C8H5Cl3O2/c9-5-1-2-6(10)8(11)4(5)3-7(12)13/h1-2H,3H2,(H,12,13)

> <InChI Key_QSARr>
QZXCCPZJCKEPSA-UHFFFAOYSA-N

> <LogKOC>
1.8

$$$$
100090
  -INDIGO-08031722282D

 25 26  0  0  0  0  0  0  0  0999 V2000
    1.8669    3.5292    0.0000 O   0  0  0  0  0  0  0  0  0  0  0  0
    0.8384    2.3036    0.0000 N   0  0  0  0  0  0  0  0  0  0  0  0
    1.3857    0.8000    0.0000 N   0  0  0  0  0  0  0  0  0  0  0  0
    2.9613    0.5222    0.0000 C   0  0  0  0  0  0  0  0  0  0  0  0
    3.5086   -0.9813    0.0000 C   0  0  0  0  0  0  0  0  0  0  0  0
    2.4802   -2.2071    0.0000 H   0  0  0  0  0  0  0  0  0  0  0  0
    5.0842   -1.2592    0.0000 C   0  0  0  0  0  0  0  0  0  0  0  0
    5.6315   -2.7627    0.0000 H   0  0  0  0  0  0  0  0  0  0  0  0
    6.1126   -0.0335    0.0000 C   0  0  0  0  0  0  0  0  0  0  0  0
    7.6884   -0.3113    0.0000 H   0  0  0  0  0  0  0  0  0  0  0  0
    5.5655    1.4700    0.0000 C   0  0  0  0  0  0  0  0  0  0  0  0
    6.5940    2.6957    0.0000 H   0  0  0  0  0  0  0  0  0  0  0  0
    3.9898    1.7478    0.0000 C   0  0  0  0  0  0  0  0  0  0  0  0
    3.4426    3.2514    0.0000 H   0  0  0  0  0  0  0  0  0  0  0  0
   -0.0001    0.0001    0.0000 C   0  0  0  0  0  0  0  0  0  0  0  0
   -0.0001   -1.6000    0.0000 C   0  0  0  0  0  0  0  0  0  0  0  0
    1.3857   -2.4000    0.0000 H   0  0  0  0  0  0  0  0  0  0  0  0
   -1.3857   -2.4000    0.0000 C   0  0  0  0  0  0  0  0  0  0  0  0
   -1.3857   -4.0000    0.0000 H   0  0  0  0  0  0  0  0  0  0  0  0
   -2.7713   -1.6000    0.0000 C   0  0  0  0  0  0  0  0  0  0  0  0
   -4.1569   -2.4000    0.0000 H   0  0  0  0  0  0  0  0  0  0  0  0
   -2.7713    0.0001    0.0000 C   0  0  0  0  0  0  0  0  0  0  0  0
   -4.1569    0.8000    0.0000 H   0  0  0  0  0  0  0  0  0  0  0  0
   -1.3857    0.8000    0.0000 C   0  0  0  0  0  0  0  0  0  0  0  0
   -1.3857    2.3999    0.0000 H   0  0  0  0  0  0  0  0  0  0  0  0
  1  2  2  0  0  0  0
  2  3  1  0  0  0  0
  3  4  1  0  0  0  0
  4  5  1  0  0  0  0
  5  6  1  0  0  0  0
  5  7  2  0  0  0  0
  7  8  1  0  0  0  0
  7  9  1  0  0  0  0
  9 10  1  0  0  0  0
  9 11  2  0  0  0  0
 11 12  1  0  0  0  0
 11 13  1  0  0  0  0
 13  4  2  0  0  0  0
 13 14  1  0  0  0  0
  3 15  1  0  0  0  0
 15 16  1  0  0  0  0
 16 17  1  0  0  0  0
 16 18  2  0  0  0  0
 18 19  1  0  0  0  0
 18 20  1  0  0  0  0
 20 21  1  0  0  0  0
 20 22  2  0  0  0  0
 22 23  1  0  0  0  0
 22 24  1  0  0  0  0
 24 15  2  0  0  0  0
 24 25  1  0  0  0  0
M  END
> <ChemID>
100090

> <source_casrn>
86-30-6

> <CAS>
86-30-6

> <SMILES>
O=NN(c1ccccc1)c1ccccc1

> <NAME>
DIPHENYLNITROSAMINE

> <preferred_name>
N-Nitrosodiphenylamine

> <iupac>
N-nitroso-N-phenylaniline

> <MPID>
99367

> <dsstox_substance_id>
DTXSID6021030

> <Canonical_QSARr>
O=NN(c1ccccc1)c1ccccc1

> <InChI_Code_QSARr>
InChI=1S/C12H10N2O/c15-13-14(11-7-3-1-4-8-11)12-9-5-2-6-10-12/h1-10H

> <InChI Key_QSARr>
UBUCNCOMADRQHX-UHFFFAOYSA-N

> <LogKOC>
3.08

$$$$
100094
  -INDIGO-08031722282D

 25 26  0  0  0  0  0  0  0  0999 V2000
    3.2000    2.7713    0.0000 N   0  0  0  0  0  0  0  0  0  0  0  0
    4.8000    2.7713    0.0000 H   0  0  0  0  0  0  0  0  0  0  0  0
    2.4000    4.1569    0.0000 H   0  0  0  0  0  0  0  0  0  0  0  0
    2.4000    1.3856    0.0000 C   0  0  0  0  0  0  0  0  0  0  0  0
    3.2000    0.0001    0.0000 O   0  0  0  0  0  0  0  0  0  0  0  0
    0.8001    1.3856    0.0000 C   0  0  0  0  0  0  0  0  0  0  0  0
   -0.4694    2.3597    0.0000 H   0  0  0  0  0  0  0  0  0  0  0  0
    0.5912    2.9719    0.0000 H   0  0  0  0  0  0  0  0  0  0  0  0
    0.0001    0.0001    0.0000 C   0  0  0  0  0  0  0  0  0  0  0  0
   -1.6001    0.0001    0.0000 C   0  0  0  0  0  0  0  0  0  0  0  0
   -2.4001   -1.3856    0.0000 C   0  0  0  0  0  0  0  0  0  0  0  0
   -4.0000   -1.3856    0.0000 C   0  0  0  0  0  0  0  0  0  0  0  0
   -4.8000   -2.7712    0.0000 H   0  0  0  0  0  0  0  0  0  0  0  0
   -4.8000    0.0001    0.0000 C   0  0  0  0  0  0  0  0  0  0  0  0
   -6.4000    0.0001    0.0000 H   0  0  0  0  0  0  0  0  0  0  0  0
   -4.0000    1.3856    0.0000 C   0  0  0  0  0  0  0  0  0  0  0  0
   -4.8000    2.7712    0.0000 H   0  0  0  0  0  0  0  0  0  0  0  0
   -2.4001    1.3856    0.0000 C   0  0  0  0  0  0  0  0  0  0  0  0
   -1.6001    2.7713    0.0000 H   0  0  0  0  0  0  0  0  0  0  0  0
   -1.6001   -2.7713    0.0000 C   0  0  0  0  0  0  0  0  0  0  0  0
   -2.4001   -4.1569    0.0000 H   0  0  0  0  0  0  0  0  0  0  0  0
    0.0001   -2.7712    0.0000 C   0  0  0  0  0  0  0  0  0  0  0  0
    0.8001   -4.1569    0.0000 H   0  0  0  0  0  0  0  0  0  0  0  0
    0.8001   -1.3856    0.0000 C   0  0  0  0  0  0  0  0  0  0  0  0
    2.4000   -1.3856    0.0000 H   0  0  0  0  0  0  0  0  0  0  0  0
  1  2  1  0  0  0  0
  1  3  1  0  0  0  0
  1  4  1  0  0  0  0
  4  5  2  0  0  0  0
  4  6  1  0  0  0  0
  6  7  1  0  0  0  0
  6  8  1  0  0  0  0
  6  9  1  0  0  0  0
  9 10  1  0  0  0  0
 10 11  1  0  0  0  0
 11 12  2  0  0  0  0
 12 13  1  0  0  0  0
 12 14  1  0  0  0  0
 14 15  1  0  0  0  0
 14 16  2  0  0  0  0
 16 17  1  0  0  0  0
 16 18  1  0  0  0  0
 18 10  2  0  0  0  0
 18 19  1  0  0  0  0
 11 20  1  0  0  0  0
 20 21  1  0  0  0  0
 20 22  2  0  0  0  0
 22 23  1  0  0  0  0
 22 24  1  0  0  0  0
 24  9  2  0  0  0  0
 24 25  1  0  0  0  0
M  END
> <ChemID>
100094

> <source_casrn>
86-86-2

> <CAS>
86-86-2

> <SMILES>
NC(=O)Cc1cccc2ccccc21

> <NAME>
1-Naphthaleneacetamide

> <preferred_name>
1-Naphthaleneacetamide

> <iupac>
2-(naphthalen-1-yl)acetamide

> <MPID>
99371

> <dsstox_substance_id>
DTXSID3020914

> <Canonical_QSARr>
NC(=O)Cc1cccc2ccccc21

> <InChI_Code_QSARr>
InChI=1S/C12H11NO/c13-12(14)8-10-6-3-5-9-4-1-2-7-11(9)10/h1-7H,8H2,(H2,13,14)

> <InChI Key_QSARr>
XFNJVKMNNVCYEK-UHFFFAOYSA-N

> <LogKOC>
2.0

$$$$
100098
  -INDIGO-08031722282D

 13 13  0  0  0  0  0  0  0  0999 V2000
    0.8000    1.3856    0.0000 O   0  0  0  0  0  0  0  0  0  0  0  0
    2.4000    1.3856    0.0000 H   0  0  0  0  0  0  0  0  0  0  0  0
   -0.0000   -0.0000    0.0000 C   0  0  0  0  0  0  0  0  0  0  0  0
    0.8000   -1.3857    0.0000 C   0  0  0  0  0  0  0  0  0  0  0  0
    2.4000   -1.3857    0.0000 Cl  0  0  0  0  0  0  0  0  0  0  0  0
   -0.0000   -2.7713    0.0000 C   0  0  0  0  0  0  0  0  0  0  0  0
    0.8000   -4.1569    0.0000 H   0  0  0  0  0  0  0  0  0  0  0  0
   -1.6000   -2.7713    0.0000 C   0  0  0  0  0  0  0  0  0  0  0  0
   -2.4000   -4.1569    0.0000 Cl  0  0  0  0  0  0  0  0  0  0  0  0
   -2.4000   -1.3856    0.0000 C   0  0  0  0  0  0  0  0  0  0  0  0
   -4.0000   -1.3856    0.0000 H   0  0  0  0  0  0  0  0  0  0  0  0
   -1.6000   -0.0000    0.0000 C   0  0  0  0  0  0  0  0  0  0  0  0
   -2.4000    1.3856    0.0000 Cl  0  0  0  0  0  0  0  0  0  0  0  0
  1  2  1  0  0  0  0
  1  3  1  0  0  0  0
  3  4  1  0  0  0  0
  4  5  1  0  0  0  0
  4  6  2  0  0  0  0
  6  7  1  0  0  0  0
  6  8  1  0  0  0  0
  8  9  1  0  0  0  0
  8 10  2  0  0  0  0
 10 11  1  0  0  0  0
 10 12  1  0  0  0  0
 12  3  2  0  0  0  0
 12 13  1  0  0  0  0
M  END
> <ChemID>
100098

> <source_casrn>
88-06-2

> <CAS>
88-06-2

> <SMILES>
Oc1c(Cl)cc(Cl)cc1Cl

> <NAME>
2,4,6-TRICHLOROPHENOL

> <preferred_name>
2,4,6-Trichlorophenol

> <iupac>
C6H3Cl3O

> <MPID>
99375

> <dsstox_substance_id>
DTXSID5021386

> <Canonical_QSARr>
Oc1c(Cl)cc(Cl)cc1Cl

> <InChI_Code_QSARr>
InChI=1S/C6H3Cl3O/c7-3-1-4(8)6(10)5(9)2-3/h1-2,10H

> <InChI Key_QSARr>
LINPIYWFGCPVIE-UHFFFAOYSA-N

> <LogKOC>
3.03

$$$$
100102
  -INDIGO-08031722282D

 17 17  0  0  0  0  0  0  0  0999 V2000
    2.4000    1.3856    0.0000 C   0  0  0  0  0  0  0  0  0  0  0  0
    3.2001    2.7713    0.0000 H   0  0  0  0  0  0  0  0  0  0  0  0
    3.2001    0.0000    0.0000 C   0  0  0  0  0  0  0  0  0  0  0  0
    4.8000    0.0000    0.0000 H   0  0  0  0  0  0  0  0  0  0  0  0
    2.4000   -1.3856    0.0000 C   0  0  0  0  0  0  0  0  0  0  0  0
    3.2001   -2.7713    0.0000 H   0  0  0  0  0  0  0  0  0  0  0  0
    0.8000   -1.3856    0.0000 C   0  0  0  0  0  0  0  0  0  0  0  0
    0.0000   -2.7713    0.0000 H   0  0  0  0  0  0  0  0  0  0  0  0
    0.0000    0.0000    0.0000 C   0  0  0  0  0  0  0  0  0  0  0  0
   -1.6000    0.0000    0.0000 O   0  0  0  0  0  0  0  0  0  0  0  0
   -2.4001   -1.3856    0.0000 C   0  0  0  0  0  0  0  0  0  0  0  0
   -4.0000   -1.3856    0.0000 H   0  0  0  0  0  0  0  0  0  0  0  0
   -3.2000   -2.7713    0.0000 H   0  0  0  0  0  0  0  0  0  0  0  0
   -3.2000    0.0000    0.0000 H   0  0  0  0  0  0  0  0  0  0  0  0
    0.8000    1.3856    0.0000 C   0  0  0  0  0  0  0  0  0  0  0  0
    0.0000    2.7713    0.0000 O   0  0  0  0  0  0  0  0  0  0  0  0
    0.8000    4.1569    0.0000 H   0  0  0  0  0  0  0  0  0  0  0  0
  1  2  1  0  0  0  0
  1  3  1  0  0  0  0
  3  4  1  0  0  0  0
  3  5  2  0  0  0  0
  5  6  1  0  0  0  0
  5  7  1  0  0  0  0
  7  8  1  0  0  0  0
  7  9  2  0  0  0  0
  9 10  1  0  0  0  0
 10 11  1  0  0  0  0
 11 12  1  0  0  0  0
 11 13  1  0  0  0  0
 11 14  1  0  0  0  0
  9 15  1  0  0  0  0
 15  1  2  0  0  0  0
 15 16  1  0  0  0  0
 16 17  1  0  0  0  0
M  END
> <ChemID>
100102

> <source_casrn>
90-05-1

> <CAS>
90-05-1

> <SMILES>
COc1ccccc1O

> <NAME>
2-METHOXYPHENOL

> <preferred_name>
2-Methoxyphenol

> <iupac>
2-methoxyphenol

> <MPID>
99379

> <dsstox_substance_id>
DTXSID0023113

> <Canonical_QSARr>
COc1ccccc1O

> <InChI_Code_QSARr>
InChI=1S/C7H8O2/c1-9-7-5-3-2-4-6(7)8/h2-5,8H,1H3

> <InChI Key_QSARr>
LHGVFZTZFXWLCP-UHFFFAOYSA-N

> <LogKOC>
1.56

$$$$
100106
  -INDIGO-08031722282D

 26 27  0  0  0  0  0  0  0  0999 V2000
   -1.5757    0.2779    0.0000 C   0  0  0  0  0  0  0  0  0  0  0  0
    0.0000    0.0000    0.0000 C   0  0  0  0  0  0  0  0  0  0  0  0
   -0.2778   -1.5757    0.0000 H   0  0  0  0  0  0  0  0  0  0  0  0
    1.5757   -0.2778    0.0000 C   0  0  0  0  0  0  0  0  0  0  0  0
    2.1229   -1.7814    0.0000 C   0  0  0  0  0  0  0  0  0  0  0  0
    1.0944   -3.0070    0.0000 H   0  0  0  0  0  0  0  0  0  0  0  0
    3.6986   -2.0592    0.0000 C   0  0  0  0  0  0  0  0  0  0  0  0
    4.2459   -3.5627    0.0000 H   0  0  0  0  0  0  0  0  0  0  0  0
    4.7270   -0.8335    0.0000 C   0  0  0  0  0  0  0  0  0  0  0  0
    6.3028   -1.1114    0.0000 H   0  0  0  0  0  0  0  0  0  0  0  0
    4.1799    0.6700    0.0000 C   0  0  0  0  0  0  0  0  0  0  0  0
    5.2084    1.8956    0.0000 H   0  0  0  0  0  0  0  0  0  0  0  0
    2.6042    0.9478    0.0000 C   0  0  0  0  0  0  0  0  0  0  0  0
    2.0569    2.4513    0.0000 H   0  0  0  0  0  0  0  0  0  0  0  0
    0.5473    1.5035    0.0000 O   0  0  0  0  0  0  0  0  0  0  0  0
   -0.4811    2.7292    0.0000 H   0  0  0  0  0  0  0  0  0  0  0  0
   -2.3757    1.6635    0.0000 C   0  0  0  0  0  0  0  0  0  0  0  0
   -1.5757    3.0491    0.0000 H   0  0  0  0  0  0  0  0  0  0  0  0
   -3.9756    1.6635    0.0000 C   0  0  0  0  0  0  0  0  0  0  0  0
   -4.7758    3.0491    0.0000 H   0  0  0  0  0  0  0  0  0  0  0  0
   -4.7758    0.2779    0.0000 C   0  0  0  0  0  0  0  0  0  0  0  0
   -6.3757    0.2779    0.0000 H   0  0  0  0  0  0  0  0  0  0  0  0
   -3.9756   -1.1078    0.0000 C   0  0  0  0  0  0  0  0  0  0  0  0
   -4.7758   -2.4935    0.0000 H   0  0  0  0  0  0  0  0  0  0  0  0
   -2.3757   -1.1078    0.0000 C   0  0  0  0  0  0  0  0  0  0  0  0
   -1.5757   -2.4935    0.0000 H   0  0  0  0  0  0  0  0  0  0  0  0
  1  2  1  0  0  0  0
  2  3  1  0  0  0  0
  2  4  1  0  0  0  0
  4  5  1  0  0  0  0
  5  6  1  0  0  0  0
  5  7  2  0  0  0  0
  7  8  1  0  0  0  0
  7  9  1  0  0  0  0
  9 10  1  0  0  0  0
  9 11  2  0  0  0  0
 11 12  1  0  0  0  0
 11 13  1  0  0  0  0
 13  4  2  0  0  0  0
 13 14  1  0  0  0  0
  2 15  1  0  0  0  0
 15 16  1  0  0  0  0
  1 17  1  0  0  0  0
 17 18  1  0  0  0  0
 17 19  2  0  0  0  0
 19 20  1  0  0  0  0
 19 21  1  0  0  0  0
 21 22  1  0  0  0  0
 21 23  2  0  0  0  0
 23 24  1  0  0  0  0
 23 25  1  0  0  0  0
 25  1  2  0  0  0  0
 25 26  1  0  0  0  0
M  END
> <ChemID>
100106

> <source_casrn>
91-01-0

> <CAS>
91-01-0

> <SMILES>
OC(c1ccccc1)c1ccccc1

> <NAME>
BENZHYDROL

> <preferred_name>
Diphenylmethanol

> <iupac>
C13H12O

> <MPID>
99383

> <dsstox_substance_id>
DTXSID2059015

> <Canonical_QSARr>
OC(c1ccccc1)c1ccccc1

> <InChI_Code_QSARr>
InChI=1S/C13H12O/c14-13(11-7-3-1-4-8-11)12-9-5-2-6-10-12/h1-10,13-14H

> <InChI Key_QSARr>
QILSFLSDHQAZET-UHFFFAOYSA-N

> <LogKOC>
2.34

$$$$
100110
  -INDIGO-08031722282D

 17 18  0  0  0  0  0  0  0  0999 V2000
   -1.3856    2.4000    0.0000 N   0  0  0  0  0  0  0  0  0  0  0  0
   -2.7712    1.6000    0.0000 C   0  0  0  0  0  0  0  0  0  0  0  0
   -4.1569    2.4000    0.0000 H   0  0  0  0  0  0  0  0  0  0  0  0
   -2.7712    0.0000    0.0000 C   0  0  0  0  0  0  0  0  0  0  0  0
   -4.1569   -0.8000    0.0000 H   0  0  0  0  0  0  0  0  0  0  0  0
   -1.3856   -0.8000    0.0000 C   0  0  0  0  0  0  0  0  0  0  0  0
   -1.3856   -2.4000    0.0000 H   0  0  0  0  0  0  0  0  0  0  0  0
    0.0001    0.0000    0.0000 C   0  0  0  0  0  0  0  0  0  0  0  0
    0.0001    1.6000    0.0000 C   0  0  0  0  0  0  0  0  0  0  0  0
    1.3856    2.4000    0.0000 C   0  0  0  0  0  0  0  0  0  0  0  0
    1.3856    4.0000    0.0000 H   0  0  0  0  0  0  0  0  0  0  0  0
    2.7713    1.6000    0.0000 C   0  0  0  0  0  0  0  0  0  0  0  0
    4.1569    2.4000    0.0000 H   0  0  0  0  0  0  0  0  0  0  0  0
    2.7713    0.0000    0.0000 C   0  0  0  0  0  0  0  0  0  0  0  0
    4.1569   -0.8000    0.0000 H   0  0  0  0  0  0  0  0  0  0  0  0
    1.3856   -0.8000    0.0000 C   0  0  0  0  0  0  0  0  0  0  0  0
    1.3856   -2.4000    0.0000 H   0  0  0  0  0  0  0  0  0  0  0  0
  1  2  1  0  0  0  0
  2  3  1  0  0  0  0
  2  4  2  0  0  0  0
  4  5  1  0  0  0  0
  4  6  1  0  0  0  0
  6  7  1  0  0  0  0
  6  8  2  0  0  0  0
  8  9  1  0  0  0  0
  9  1  2  0  0  0  0
  9 10  1  0  0  0  0
 10 11  1  0  0  0  0
 10 12  2  0  0  0  0
 12 13  1  0  0  0  0
 12 14  1  0  0  0  0
 14 15  1  0  0  0  0
 14 16  2  0  0  0  0
 16  8  1  0  0  0  0
 16 17  1  0  0  0  0
M  END
> <ChemID>
100110

> <source_casrn>
91-22-5

> <CAS>
91-22-5

> <SMILES>
c1cccc2[n]cccc21

> <NAME>
QUINOLINE

> <preferred_name>
Quinoline

> <iupac>
C9H7N

> <MPID>
99387

> <dsstox_substance_id>
DTXSID1021798

> <Canonical_QSARr>
c1cccc2[n]cccc21

> <InChI_Code_QSARr>
InChI=1S/C9H7N/c1-2-6-9-8(4-1)5-3-7-10-9/h1-7H

> <InChI Key_QSARr>
SMWDFEZZVXVKRB-UHFFFAOYSA-N

> <LogKOC>
3.1

$$$$
100114
  -INDIGO-08031722282D

 26 27  0  0  0  0  0  0  0  0999 V2000
    3.2000   -2.7713    0.0000 Cl  0  0  0  0  0  0  0  0  0  0  0  0
    2.4000   -1.3856    0.0000 C   0  0  0  0  0  0  0  0  0  0  0  0
    3.2000   -0.0000    0.0000 C   0  0  0  0  0  0  0  0  0  0  0  0
    4.8000   -0.0000    0.0000 N   0  0  0  0  0  0  0  0  0  0  0  0
    5.6000   -1.3856    0.0000 H   0  0  0  0  0  0  0  0  0  0  0  0
    5.6000    1.3856    0.0000 H   0  0  0  0  0  0  0  0  0  0  0  0
    2.4000    1.3856    0.0000 C   0  0  0  0  0  0  0  0  0  0  0  0
    3.2000    2.7713    0.0000 H   0  0  0  0  0  0  0  0  0  0  0  0
    0.7999    1.3856    0.0000 C   0  0  0  0  0  0  0  0  0  0  0  0
   -0.0001    2.7713    0.0000 H   0  0  0  0  0  0  0  0  0  0  0  0
   -0.0001   -0.0000    0.0000 C   0  0  0  0  0  0  0  0  0  0  0  0
   -1.5999    0.0000    0.0000 C   0  0  0  0  0  0  0  0  0  0  0  0
   -2.3999    1.3856    0.0000 C   0  0  0  0  0  0  0  0  0  0  0  0
   -1.5999    2.7713    0.0000 H   0  0  0  0  0  0  0  0  0  0  0  0
   -4.0000    1.3856    0.0000 C   0  0  0  0  0  0  0  0  0  0  0  0
   -4.8000    2.7713    0.0000 Cl  0  0  0  0  0  0  0  0  0  0  0  0
   -4.8000    0.0000    0.0000 C   0  0  0  0  0  0  0  0  0  0  0  0
   -6.4000    0.0000    0.0000 N   0  0  0  0  0  0  0  0  0  0  0  0
   -7.2000    1.3856    0.0000 H   0  0  0  0  0  0  0  0  0  0  0  0
   -7.2000   -1.3856    0.0000 H   0  0  0  0  0  0  0  0  0  0  0  0
   -4.0000   -1.3856    0.0000 C   0  0  0  0  0  0  0  0  0  0  0  0
   -4.8000   -2.7713    0.0000 H   0  0  0  0  0  0  0  0  0  0  0  0
   -2.3999   -1.3856    0.0000 C   0  0  0  0  0  0  0  0  0  0  0  0
   -1.5999   -2.7713    0.0000 H   0  0  0  0  0  0  0  0  0  0  0  0
    0.7999   -1.3856    0.0000 C   0  0  0  0  0  0  0  0  0  0  0  0
   -0.0001   -2.7713    0.0000 H   0  0  0  0  0  0  0  0  0  0  0  0
  1  2  1  0  0  0  0
  2  3  1  0  0  0  0
  3  4  1  0  0  0  0
  4  5  1  0  0  0  0
  4  6  1  0  0  0  0
  3  7  2  0  0  0  0
  7  8  1  0  0  0  0
  7  9  1  0  0  0  0
  9 10  1  0  0  0  0
  9 11  2  0  0  0  0
 11 12  1  0  0  0  0
 12 13  1  0  0  0  0
 13 14  1  0  0  0  0
 13 15  2  0  0  0  0
 15 16  1  0  0  0  0
 15 17  1  0  0  0  0
 17 18  1  0  0  0  0
 18 19  1  0  0  0  0
 18 20  1  0  0  0  0
 17 21  2  0  0  0  0
 21 22  1  0  0  0  0
 21 23  1  0  0  0  0
 23 12  2  0  0  0  0
 23 24  1  0  0  0  0
 11 25  1  0  0  0  0
 25  2  2  0  0  0  0
 25 26  1  0  0  0  0
M  END
> <ChemID>
100114

> <source_casrn>
91-94-1

> <CAS>
91-94-1

> <SMILES>
Nc1ccc(cc1Cl)-c1cc(Cl)c(N)cc1

> <NAME>
3,3'-DICHLOROBENZIDINE

> <preferred_name>
3,3'-Dichlorobenzidine

> <iupac>
3,3'-dichlorobiphenyl-4,4'-diamine

> <MPID>
99391

> <dsstox_substance_id>
DTXSID6020432

> <Canonical_QSARr>
Nc1ccc(cc1Cl)-c1cc(Cl)c(N)cc1

> <InChI_Code_QSARr>
InChI=1S/C12H10Cl2N2/c13-9-5-7(1-3-11(9)15)8-2-4-12(16)10(14)6-8/h1-6H,15-16H2

> <InChI Key_QSARr>
HUWXDEQWWKGHRV-UHFFFAOYSA-N

> <LogKOC>
4.35

$$$$
100118
  -INDIGO-08031722282D

 26 27  0  0  0  0  0  0  0  0999 V2000
    4.8000   -0.0000    0.0000 N   0  0  0  0  0  0  0  0  0  0  0  0
    5.6000    1.3856    0.0000 H   0  0  0  0  0  0  0  0  0  0  0  0
    5.6000   -1.3856    0.0000 H   0  0  0  0  0  0  0  0  0  0  0  0
    3.2000   -0.0000    0.0000 C   0  0  0  0  0  0  0  0  0  0  0  0
    2.4000    1.3856    0.0000 C   0  0  0  0  0  0  0  0  0  0  0  0
    3.2000    2.7713    0.0000 H   0  0  0  0  0  0  0  0  0  0  0  0
    0.7999    1.3856    0.0000 C   0  0  0  0  0  0  0  0  0  0  0  0
   -0.0001    2.7713    0.0000 H   0  0  0  0  0  0  0  0  0  0  0  0
   -0.0001   -0.0000    0.0000 C   0  0  0  0  0  0  0  0  0  0  0  0
   -1.5999    0.0000    0.0000 C   0  0  0  0  0  0  0  0  0  0  0  0
   -2.3999    1.3856    0.0000 C   0  0  0  0  0  0  0  0  0  0  0  0
   -1.5999    2.7713    0.0000 H   0  0  0  0  0  0  0  0  0  0  0  0
   -4.0000    1.3856    0.0000 C   0  0  0  0  0  0  0  0  0  0  0  0
   -4.8000    2.7713    0.0000 H   0  0  0  0  0  0  0  0  0  0  0  0
   -4.8000    0.0000    0.0000 C   0  0  0  0  0  0  0  0  0  0  0  0
   -6.4000    0.0000    0.0000 N   0  0  0  0  0  0  0  0  0  0  0  0
   -7.2000    1.3856    0.0000 H   0  0  0  0  0  0  0  0  0  0  0  0
   -7.2000   -1.3856    0.0000 H   0  0  0  0  0  0  0  0  0  0  0  0
   -4.0000   -1.3856    0.0000 C   0  0  0  0  0  0  0  0  0  0  0  0
   -4.8000   -2.7713    0.0000 H   0  0  0  0  0  0  0  0  0  0  0  0
   -2.3999   -1.3856    0.0000 C   0  0  0  0  0  0  0  0  0  0  0  0
   -1.5999   -2.7713    0.0000 H   0  0  0  0  0  0  0  0  0  0  0  0
    0.7999   -1.3856    0.0000 C   0  0  0  0  0  0  0  0  0  0  0  0
   -0.0001   -2.7713    0.0000 H   0  0  0  0  0  0  0  0  0  0  0  0
    2.4000   -1.3856    0.0000 C   0  0  0  0  0  0  0  0  0  0  0  0
    3.2000   -2.7713    0.0000 H   0  0  0  0  0  0  0  0  0  0  0  0
  1  2  1  0  0  0  0
  1  3  1  0  0  0  0
  1  4  1  0  0  0  0
  4  5  1  0  0  0  0
  5  6  1  0  0  0  0
  5  7  2  0  0  0  0
  7  8  1  0  0  0  0
  7  9  1  0  0  0  0
  9 10  1  0  0  0  0
 10 11  1  0  0  0  0
 11 12  1  0  0  0  0
 11 13  2  0  0  0  0
 13 14  1  0  0  0  0
 13 15  1  0  0  0  0
 15 16  1  0  0  0  0
 16 17  1  0  0  0  0
 16 18  1  0  0  0  0
 15 19  2  0  0  0  0
 19 20  1  0  0  0  0
 19 21  1  0  0  0  0
 21 10  2  0  0  0  0
 21 22  1  0  0  0  0
  9 23  2  0  0  0  0
 23 24  1  0  0  0  0
 23 25  1  0  0  0  0
 25  4  2  0  0  0  0
 25 26  1  0  0  0  0
M  END
> <ChemID>
100118

> <source_casrn>
92-87-5

> <CAS>
92-87-5

> <SMILES>
Nc1ccc(cc1)-c1ccc(N)cc1

> <NAME>
BENZIDINE

> <preferred_name>
Benzidine

> <iupac>
biphenyl-4,4'-diamine

> <MPID>
99395

> <dsstox_substance_id>
DTXSID2020137

> <Canonical_QSARr>
Nc1ccc(cc1)-c1ccc(N)cc1

> <InChI_Code_QSARr>
InChI=1S/C12H12N2/c13-11-5-1-9(2-6-11)10-3-7-12(14)8-4-10/h1-8H,13-14H2

> <InChI Key_QSARr>
HFACYLZERDEVSX-UHFFFAOYSA-N

> <LogKOC>
3.46

$$$$
100122
  -INDIGO-08031722282D

 25 25  0  0  0  0  0  0  0  0999 V2000
    1.3856    0.8001    0.0000 O   0  0  0  0  0  0  0  0  0  0  0  0
    2.7713   -0.0000    0.0000 C   0  0  0  0  0  0  0  0  0  0  0  0
    4.1570    0.8001    0.0000 C   0  0  0  0  0  0  0  0  0  0  0  0
    4.1570    2.4000    0.0000 C   0  0  0  0  0  0  0  0  0  0  0  0
    4.1570    4.0000    0.0000 H   0  0  0  0  0  0  0  0  0  0  0  0
    5.5426    3.2000    0.0000 H   0  0  0  0  0  0  0  0  0  0  0  0
    2.7713    3.2000    0.0000 H   0  0  0  0  0  0  0  0  0  0  0  0
    5.5426   -0.0000    0.0000 C   0  0  0  0  0  0  0  0  0  0  0  0
    6.9282    0.8001    0.0000 H   0  0  0  0  0  0  0  0  0  0  0  0
    5.5426   -1.6000    0.0000 C   0  0  0  0  0  0  0  0  0  0  0  0
    6.9282   -2.4000    0.0000 Cl  0  0  0  0  0  0  0  0  0  0  0  0
    4.1570   -2.4000    0.0000 C   0  0  0  0  0  0  0  0  0  0  0  0
    4.1570   -4.0000    0.0000 H   0  0  0  0  0  0  0  0  0  0  0  0
    2.7713   -1.6000    0.0000 C   0  0  0  0  0  0  0  0  0  0  0  0
    1.3856   -2.4000    0.0000 H   0  0  0  0  0  0  0  0  0  0  0  0
   -0.0000   -0.0000    0.0000 C   0  0  0  0  0  0  0  0  0  0  0  0
    0.8001   -1.3857    0.0000 H   0  0  0  0  0  0  0  0  0  0  0  0
   -0.8000    1.3857    0.0000 C   0  0  0  0  0  0  0  0  0  0  0  0
   -2.3999    1.3857    0.0000 O   0  0  0  0  0  0  0  0  0  0  0  0
   -0.0000    2.7712    0.0000 O   0  0  0  0  0  0  0  0  0  0  0  0
   -0.8000    4.1569    0.0000 H   0  0  0  0  0  0  0  0  0  0  0  0
   -1.3857   -0.8000    0.0000 C   0  0  0  0  0  0  0  0  0  0  0  0
   -2.7713   -1.6000    0.0000 H   0  0  0  0  0  0  0  0  0  0  0  0
   -2.7713   -0.0000    0.0000 H   0  0  0  0  0  0  0  0  0  0  0  0
   -1.3857   -2.4000    0.0000 H   0  0  0  0  0  0  0  0  0  0  0  0
  1  2  1  0  0  0  0
  2  3  1  0  0  0  0
  3  4  1  0  0  0  0
  4  5  1  0  0  0  0
  4  6  1  0  0  0  0
  4  7  1  0  0  0  0
  3  8  2  0  0  0  0
  8  9  1  0  0  0  0
  8 10  1  0  0  0  0
 10 11  1  0  0  0  0
 10 12  2  0  0  0  0
 12 13  1  0  0  0  0
 12 14  1  0  0  0  0
 14  2  2  0  0  0  0
 14 15  1  0  0  0  0
  1 16  1  0  0  0  0
 16 17  1  0  0  0  0
 16 18  1  0  0  0  0
 18 19  2  0  0  0  0
 18 20  1  0  0  0  0
 20 21  1  0  0  0  0
 16 22  1  0  0  0  0
 22 23  1  0  0  0  0
 22 24  1  0  0  0  0
 22 25  1  0  0  0  0
M  END
> <ChemID>
100122

> <source_casrn>
93-65-2

> <CAS>
93-65-2

> <SMILES>
Cc1cc(Cl)ccc1OC(C)C(O)=O

> <NAME>
MECOPROP

> <preferred_name>
Mecoprop

> <iupac>
2-(4-chloro-2-methylphenoxy)propanoic acid

> <MPID>
99399

> <dsstox_substance_id>
DTXSID9024194

> <Canonical_QSARr>
Cc1cc(Cl)ccc1OC(C)C(O)=O

> <InChI_Code_QSARr>
InChI=1S/C10H11ClO3/c1-6-5-8(11)3-4-9(6)14-7(2)10(12)13/h3-5,7H,1-2H3,(H,12,13)

> <InChI Key_QSARr>
WNTGYJSOUMFZEP-UHFFFAOYSA-N

> <LogKOC>
1.3

$$$$
100126
  -INDIGO-08031722282D

 21 21  0  0  0  0  0  0  0  0999 V2000
   -1.3856    0.8000    0.0000 C   0  0  0  0  0  0  0  0  0  0  0  0
   -1.3856    2.4000    0.0000 O   0  0  0  0  0  0  0  0  0  0  0  0
   -0.0001   -0.0000    0.0000 C   0  0  0  0  0  0  0  0  0  0  0  0
   -0.0001   -1.6000    0.0000 C   0  0  0  0  0  0  0  0  0  0  0  0
   -1.3857   -2.4000    0.0000 H   0  0  0  0  0  0  0  0  0  0  0  0
    1.3856   -2.4000    0.0000 C   0  0  0  0  0  0  0  0  0  0  0  0
    1.3856   -4.0000    0.0000 H   0  0  0  0  0  0  0  0  0  0  0  0
    2.7713   -1.6000    0.0000 C   0  0  0  0  0  0  0  0  0  0  0  0
    4.1569   -2.4000    0.0000 H   0  0  0  0  0  0  0  0  0  0  0  0
    2.7713   -0.0000    0.0000 C   0  0  0  0  0  0  0  0  0  0  0  0
    4.1569    0.8000    0.0000 H   0  0  0  0  0  0  0  0  0  0  0  0
    1.3856    0.8000    0.0000 C   0  0  0  0  0  0  0  0  0  0  0  0
    1.3856    2.4000    0.0000 H   0  0  0  0  0  0  0  0  0  0  0  0
   -2.7712   -0.0000    0.0000 O   0  0  0  0  0  0  0  0  0  0  0  0
   -4.1569    0.8000    0.0000 C   0  0  0  0  0  0  0  0  0  0  0  0
   -4.7692    2.2782    0.0000 H   0  0  0  0  0  0  0  0  0  0  0  0
   -3.5446    2.2782    0.0000 H   0  0  0  0  0  0  0  0  0  0  0  0
   -5.5425   -0.0000    0.0000 C   0  0  0  0  0  0  0  0  0  0  0  0
   -6.9282   -0.8000    0.0000 H   0  0  0  0  0  0  0  0  0  0  0  0
   -6.9282    0.8000    0.0000 H   0  0  0  0  0  0  0  0  0  0  0  0
   -5.5425   -1.6000    0.0000 H   0  0  0  0  0  0  0  0  0  0  0  0
  1  2  2  0  0  0  0
  1  3  1  0  0  0  0
  3  4  1  0  0  0  0
  4  5  1  0  0  0  0
  4  6  2  0  0  0  0
  6  7  1  0  0  0  0
  6  8  1  0  0  0  0
  8  9  1  0  0  0  0
  8 10  2  0  0  0  0
 10 11  1  0  0  0  0
 10 12  1  0  0  0  0
 12  3  2  0  0  0  0
 12 13  1  0  0  0  0
  1 14  1  0  0  0  0
 14 15  1  0  0  0  0
 15 16  1  0  0  0  0
 15 17  1  0  0  0  0
 15 18  1  0  0  0  0
 18 19  1  0  0  0  0
 18 20  1  0  0  0  0
 18 21  1  0  0  0  0
M  END
> <ChemID>
100126

> <source_casrn>
93-89-0

> <CAS>
93-89-0

> <SMILES>
CCOC(=O)c1ccccc1

> <NAME>
ETHYL BENZOATE

> <preferred_name>
Ethyl benzoate

> <iupac>
ethyl benzoate

> <MPID>
99403

> <dsstox_substance_id>
DTXSID3038696

> <Canonical_QSARr>
CCOC(=O)c1ccccc1

> <InChI_Code_QSARr>
InChI=1S/C9H10O2/c1-2-11-9(10)8-6-4-3-5-7-8/h3-7H,2H2,1H3

> <InChI Key_QSARr>
MTZQAGJQAFMTAQ-UHFFFAOYSA-N

> <LogKOC>
2.3

$$$$
100130
  -INDIGO-08031722282D

 22 22  0  0  0  0  0  0  0  0999 V2000
   -0.0001    0.0000    0.0000 C   0  0  0  0  0  0  0  0  0  0  0  0
    0.7999   -1.3856    0.0000 C   0  0  0  0  0  0  0  0  0  0  0  0
    2.4001   -1.3856    0.0000 O   0  0  0  0  0  0  0  0  0  0  0  0
    3.2001   -2.7713    0.0000 C   0  0  0  0  0  0  0  0  0  0  0  0
    1.9306   -3.7453    0.0000 H   0  0  0  0  0  0  0  0  0  0  0  0
    2.9912   -4.3576    0.0000 H   0  0  0  0  0  0  0  0  0  0  0  0
    4.8000   -2.7713    0.0000 C   0  0  0  0  0  0  0  0  0  0  0  0
    5.6000   -1.3856    0.0000 O   0  0  0  0  0  0  0  0  0  0  0  0
    5.6000   -4.1569    0.0000 O   0  0  0  0  0  0  0  0  0  0  0  0
    7.2000   -4.1569    0.0000 H   0  0  0  0  0  0  0  0  0  0  0  0
   -0.0001   -2.7713    0.0000 C   0  0  0  0  0  0  0  0  0  0  0  0
    0.7999   -4.1569    0.0000 H   0  0  0  0  0  0  0  0  0  0  0  0
   -1.6000   -2.7713    0.0000 C   0  0  0  0  0  0  0  0  0  0  0  0
   -2.4000   -4.1569    0.0000 H   0  0  0  0  0  0  0  0  0  0  0  0
   -2.4000   -1.3856    0.0000 C   0  0  0  0  0  0  0  0  0  0  0  0
   -4.0000   -1.3856    0.0000 Cl  0  0  0  0  0  0  0  0  0  0  0  0
   -1.6000    0.0000    0.0000 C   0  0  0  0  0  0  0  0  0  0  0  0
   -2.4000    1.3856    0.0000 H   0  0  0  0  0  0  0  0  0  0  0  0
    0.7999    1.3856    0.0000 C   0  0  0  0  0  0  0  0  0  0  0  0
    1.5999    2.7713    0.0000 H   0  0  0  0  0  0  0  0  0  0  0  0
   -0.0001    2.7713    0.0000 H   0  0  0  0  0  0  0  0  0  0  0  0
    2.4001    1.3856    0.0000 H   0  0  0  0  0  0  0  0  0  0  0  0
  1  2  1  0  0  0  0
  2  3  1  0  0  0  0
  3  4  1  0  0  0  0
  4  5  1  0  0  0  0
  4  6  1  0  0  0  0
  4  7  1  0  0  0  0
  7  8  2  0  0  0  0
  7  9  1  0  0  0  0
  9 10  1  0  0  0  0
  2 11  2  0  0  0  0
 11 12  1  0  0  0  0
 11 13  1  0  0  0  0
 13 14  1  0  0  0  0
 13 15  2  0  0  0  0
 15 16  1  0  0  0  0
 15 17  1  0  0  0  0
 17  1  2  0  0  0  0
 17 18  1  0  0  0  0
  1 19  1  0  0  0  0
 19 20  1  0  0  0  0
 19 21  1  0  0  0  0
 19 22  1  0  0  0  0
M  END
> <ChemID>
100130

> <source_casrn>
94-74-6

> <CAS>
94-74-6

> <SMILES>
Cc1cc(Cl)ccc1OCC(O)=O

> <NAME>
2-METHYL-4-CHLOROPHENOXYACETIC ACID

> <preferred_name>
MCPA

> <iupac>
(4-chloro-2-methylphenoxy)acetic acid

> <MPID>
99407

> <dsstox_substance_id>
DTXSID4024195

> <Canonical_QSARr>
Cc1cc(Cl)ccc1OCC(O)=O

> <InChI_Code_QSARr>
InChI=1S/C9H9ClO3/c1-6-4-7(10)2-3-8(6)13-5-9(11)12/h2-4H,5H2,1H3,(H,11,12)

> <InChI Key_QSARr>
WHKUVVPPKQRRBV-UHFFFAOYSA-N

> <LogKOC>
1.73

$$$$
100134
  -INDIGO-08031722282D

 14 15  0  0  0  0  0  0  0  0999 V2000
    1.5651    0.3327    0.0000 N   0  0  0  0  0  0  0  0  0  0  0  0
    2.7541   -0.7380    0.0000 H   0  0  0  0  0  0  0  0  0  0  0  0
   -0.0000   -0.0000    0.0000 C   0  0  0  0  0  0  0  0  0  0  0  0
   -0.8000    1.3856    0.0000 C   0  0  0  0  0  0  0  0  0  0  0  0
   -2.4000    1.3856    0.0000 C   0  0  0  0  0  0  0  0  0  0  0  0
   -3.2000    2.7713    0.0000 H   0  0  0  0  0  0  0  0  0  0  0  0
   -3.2000   -0.0000    0.0000 C   0  0  0  0  0  0  0  0  0  0  0  0
   -4.8000   -0.0000    0.0000 H   0  0  0  0  0  0  0  0  0  0  0  0
   -2.4000   -1.3856    0.0000 C   0  0  0  0  0  0  0  0  0  0  0  0
   -3.2000   -2.7713    0.0000 H   0  0  0  0  0  0  0  0  0  0  0  0
   -0.8000   -1.3856    0.0000 C   0  0  0  0  0  0  0  0  0  0  0  0
   -0.0000   -2.7713    0.0000 H   0  0  0  0  0  0  0  0  0  0  0  0
    0.2706    2.5746    0.0000 N   0  0  0  0  0  0  0  0  0  0  0  0
    1.7323    1.9239    0.0000 N   0  0  0  0  0  0  0  0  0  0  0  0
  1  2  1  0  0  0  0
  1  3  1  0  0  0  0
  3  4  1  0  0  0  0
  4  5  2  0  0  0  0
  5  6  1  0  0  0  0
  5  7  1  0  0  0  0
  7  8  1  0  0  0  0
  7  9  2  0  0  0  0
  9 10  1  0  0  0  0
  9 11  1  0  0  0  0
 11  3  2  0  0  0  0
 11 12  1  0  0  0  0
  4 13  1  0  0  0  0
 13 14  2  0  0  0  0
 14  1  1  0  0  0  0
M  END
> <ChemID>
100134

> <source_casrn>
95-14-7

> <CAS>
95-14-7

> <SMILES>
c1cccc2[nH][n][n]c21

> <NAME>
1H-BENZOTRIAZOLE

> <preferred_name>
1,2,3-Benzotriazole

> <iupac>
1H-benzotriazole

> <MPID>
99411

> <dsstox_substance_id>
DTXSID6020147

> <Canonical_QSARr>
c1cccc2[nH][n][n]c21

> <InChI_Code_QSARr>
InChI=1S/C6H5N3/c1-2-4-6-5(3-1)7-9-8-6/h1-4H,(H,7,8,9)

> <InChI Key_QSARr>
QRUDEWIWKLJBPS-UHFFFAOYSA-N

> <LogKOC>
1.69

$$$$
100138
  -INDIGO-08031722282D

 13 13  0  0  0  0  0  0  0  0999 V2000
    0.8000    1.3856    0.0000 O   0  0  0  0  0  0  0  0  0  0  0  0
    2.4000    1.3856    0.0000 H   0  0  0  0  0  0  0  0  0  0  0  0
   -0.0000   -0.0000    0.0000 C   0  0  0  0  0  0  0  0  0  0  0  0
    0.8000   -1.3857    0.0000 C   0  0  0  0  0  0  0  0  0  0  0  0
    2.4000   -1.3857    0.0000 H   0  0  0  0  0  0  0  0  0  0  0  0
   -0.0000   -2.7713    0.0000 C   0  0  0  0  0  0  0  0  0  0  0  0
    0.8000   -4.1569    0.0000 H   0  0  0  0  0  0  0  0  0  0  0  0
   -1.6000   -2.7713    0.0000 C   0  0  0  0  0  0  0  0  0  0  0  0
   -2.4000   -4.1569    0.0000 H   0  0  0  0  0  0  0  0  0  0  0  0
   -2.4000   -1.3856    0.0000 C   0  0  0  0  0  0  0  0  0  0  0  0
   -4.0000   -1.3856    0.0000 H   0  0  0  0  0  0  0  0  0  0  0  0
   -1.6000   -0.0000    0.0000 C   0  0  0  0  0  0  0  0  0  0  0  0
   -2.4000    1.3856    0.0000 Cl  0  0  0  0  0  0  0  0  0  0  0  0
  1  2  1  0  0  0  0
  1  3  1  0  0  0  0
  3  4  1  0  0  0  0
  4  5  1  0  0  0  0
  4  6  2  0  0  0  0
  6  7  1  0  0  0  0
  6  8  1  0  0  0  0
  8  9  1  0  0  0  0
  8 10  2  0  0  0  0
 10 11  1  0  0  0  0
 10 12  1  0  0  0  0
 12  3  2  0  0  0  0
 12 13  1  0  0  0  0
M  END
> <ChemID>
100138

> <source_casrn>
95-57-8

> <CAS>
95-57-8

> <SMILES>
Oc1ccccc1Cl

> <NAME>
2-CHLOROPHENOL

> <preferred_name>
2-Chlorophenol

> <iupac>
2-chlorophenol

> <MPID>
99415

> <dsstox_substance_id>
DTXSID5021544

> <Canonical_QSARr>
Oc1ccccc1Cl

> <InChI_Code_QSARr>
InChI=1S/C6H5ClO/c7-5-3-1-2-4-6(5)8/h1-4,8H

> <InChI Key_QSARr>
ISPYQTSUDJAMAB-UHFFFAOYSA-N

> <LogKOC>
2.6

$$$$
100142
  -INDIGO-08031722282D

 12 12  0  0  0  0  0  0  0  0999 V2000
    0.8000    1.3856    0.0000 Cl  0  0  0  0  0  0  0  0  0  0  0  0
   -0.0000   -0.0000    0.0000 C   0  0  0  0  0  0  0  0  0  0  0  0
    0.8000   -1.3857    0.0000 C   0  0  0  0  0  0  0  0  0  0  0  0
    2.4000   -1.3857    0.0000 H   0  0  0  0  0  0  0  0  0  0  0  0
   -0.0000   -2.7713    0.0000 C   0  0  0  0  0  0  0  0  0  0  0  0
    0.8000   -4.1569    0.0000 Cl  0  0  0  0  0  0  0  0  0  0  0  0
   -1.6000   -2.7713    0.0000 C   0  0  0  0  0  0  0  0  0  0  0  0
   -2.4000   -4.1569    0.0000 Cl  0  0  0  0  0  0  0  0  0  0  0  0
   -2.4000   -1.3856    0.0000 C   0  0  0  0  0  0  0  0  0  0  0  0
   -4.0000   -1.3856    0.0000 H   0  0  0  0  0  0  0  0  0  0  0  0
   -1.6000   -0.0000    0.0000 C   0  0  0  0  0  0  0  0  0  0  0  0
   -2.4000    1.3856    0.0000 Cl  0  0  0  0  0  0  0  0  0  0  0  0
  1  2  1  0  0  0  0
  2  3  1  0  0  0  0
  3  4  1  0  0  0  0
  3  5  2  0  0  0  0
  5  6  1  0  0  0  0
  5  7  1  0  0  0  0
  7  8  1  0  0  0  0
  7  9  2  0  0  0  0
  9 10  1  0  0  0  0
  9 11  1  0  0  0  0
 11  2  2  0  0  0  0
 11 12  1  0  0  0  0
M  END
> <ChemID>
100142

> <source_casrn>
95-94-3

> <CAS>
95-94-3

> <SMILES>
Clc1cc(Cl)c(Cl)cc1Cl

> <NAME>
1,2,4,5-TETRACHLOROBENZENE

> <preferred_name>
1,2,4,5-Tetrachlorobenzene

> <iupac>
1,2,4,5-tetrachlorobenzene

> <MPID>
99419

> <dsstox_substance_id>
DTXSID7024320

> <Canonical_QSARr>
Clc1cc(Cl)c(Cl)cc1Cl

> <InChI_Code_QSARr>
InChI=1S/C6H2Cl4/c7-3-1-4(8)6(10)2-5(3)9/h1-2H

> <InChI Key_QSARr>
JHBKHLUZVFWLAG-UHFFFAOYSA-N

> <LogKOC>
4.1

$$$$
100146
  -INDIGO-08031722282D

 19 19  0  0  0  0  0  0  0  0999 V2000
    4.8001    0.0000    0.0000 C   0  0  0  0  0  0  0  0  0  0  0  0
    6.4000   -0.0000    0.0000 H   0  0  0  0  0  0  0  0  0  0  0  0
    4.0000    1.3856    0.0000 C   0  0  0  0  0  0  0  0  0  0  0  0
    4.8001    2.7713    0.0000 H   0  0  0  0  0  0  0  0  0  0  0  0
    2.4000    1.3856    0.0000 C   0  0  0  0  0  0  0  0  0  0  0  0
    1.6001    2.7713    0.0000 H   0  0  0  0  0  0  0  0  0  0  0  0
    1.6001    0.0000    0.0000 C   0  0  0  0  0  0  0  0  0  0  0  0
    0.0000   -0.0000    0.0000 C   0  0  0  0  0  0  0  0  0  0  0  0
    0.0000   -1.6000    0.0000 H   0  0  0  0  0  0  0  0  0  0  0  0
    0.0000    1.6000    0.0000 O   0  0  0  0  0  0  0  0  0  0  0  0
   -1.3856    2.4000    0.0000 H   0  0  0  0  0  0  0  0  0  0  0  0
   -1.5999   -0.0000    0.0000 C   0  0  0  0  0  0  0  0  0  0  0  0
   -3.2000   -0.0000    0.0000 H   0  0  0  0  0  0  0  0  0  0  0  0
   -2.4000   -1.3856    0.0000 H   0  0  0  0  0  0  0  0  0  0  0  0
   -2.4000    1.3856    0.0000 H   0  0  0  0  0  0  0  0  0  0  0  0
    2.4000   -1.3856    0.0000 C   0  0  0  0  0  0  0  0  0  0  0  0
    1.6001   -2.7713    0.0000 H   0  0  0  0  0  0  0  0  0  0  0  0
    4.0000   -1.3856    0.0000 C   0  0  0  0  0  0  0  0  0  0  0  0
    4.8001   -2.7713    0.0000 H   0  0  0  0  0  0  0  0  0  0  0  0
  1  2  1  0  0  0  0
  1  3  1  0  0  0  0
  3  4  1  0  0  0  0
  3  5  2  0  0  0  0
  5  6  1  0  0  0  0
  5  7  1  0  0  0  0
  7  8  1  0  0  0  0
  8  9  1  0  0  0  0
  8 10  1  0  0  0  0
 10 11  1  0  0  0  0
  8 12  1  0  0  0  0
 12 13  1  0  0  0  0
 12 14  1  0  0  0  0
 12 15  1  0  0  0  0
  7 16  2  0  0  0  0
 16 17  1  0  0  0  0
 16 18  1  0  0  0  0
 18  1  2  0  0  0  0
 18 19  1  0  0  0  0
M  END
> <ChemID>
100146

> <source_casrn>
98-85-1

> <CAS>
98-85-1

> <SMILES>
CC(O)c1ccccc1

> <NAME>
ALPHA-METHYLBENZYL ALCOHOL

> <preferred_name>
alpha-Methylbenzyl alcohol

> <iupac>
1-phenylethanol

> <MPID>
99423

> <dsstox_substance_id>
DTXSID1020859

> <Canonical_QSARr>
CC(O)c1ccccc1

> <InChI_Code_QSARr>
InChI=1S/C8H10O/c1-7(9)8-5-3-2-4-6-8/h2-7,9H,1H3

> <InChI Key_QSARr>
WAPNOHKVXSQRPX-UHFFFAOYSA-N

> <LogKOC>
1.5

$$$$
100150
  -INDIGO-08031722282D

 16 16  0  0  0  0  0  0  0  0999 V2000
   -2.4000   -1.3856    0.0000 O   0  0  0  0  0  0  0  0  0  0  0  0
   -1.5999   -0.0000    0.0000 N   0  0  0  0  0  0  0  0  0  0  0  0
    0.0001   -0.0000    0.0000 C   0  0  0  0  0  0  0  0  0  0  0  0
    0.8000    1.3856    0.0000 C   0  0  0  0  0  0  0  0  0  0  0  0
    0.0001    2.7713    0.0000 H   0  0  0  0  0  0  0  0  0  0  0  0
    2.4000    1.3856    0.0000 C   0  0  0  0  0  0  0  0  0  0  0  0
    3.2001    2.7713    0.0000 Cl  0  0  0  0  0  0  0  0  0  0  0  0
    3.2001   -0.0000    0.0000 C   0  0  0  0  0  0  0  0  0  0  0  0
    4.8001   -0.0000    0.0000 N   0  0  0  0  0  0  0  0  0  0  0  0
    5.6000    1.3856    0.0000 H   0  0  0  0  0  0  0  0  0  0  0  0
    5.6000   -1.3856    0.0000 H   0  0  0  0  0  0  0  0  0  0  0  0
    2.4000   -1.3856    0.0000 C   0  0  0  0  0  0  0  0  0  0  0  0
    3.2001   -2.7713    0.0000 Cl  0  0  0  0  0  0  0  0  0  0  0  0
    0.8000   -1.3856    0.0000 C   0  0  0  0  0  0  0  0  0  0  0  0
    0.0001   -2.7713    0.0000 H   0  0  0  0  0  0  0  0  0  0  0  0
   -2.4000    1.3856    0.0000 O   0  0  0  0  0  0  0  0  0  0  0  0
  1  2  2  0  0  0  0
  2  3  1  0  0  0  0
  3  4  1  0  0  0  0
  4  5  1  0  0  0  0
  4  6  2  0  0  0  0
  6  7  1  0  0  0  0
  6  8  1  0  0  0  0
  8  9  1  0  0  0  0
  9 10  1  0  0  0  0
  9 11  1  0  0  0  0
  8 12  2  0  0  0  0
 12 13  1  0  0  0  0
 12 14  1  0  0  0  0
 14  3  2  0  0  0  0
 14 15  1  0  0  0  0
  2 16  1  0  0  0  0
M  CHG  2   2   1  16  -1
M  END
> <ChemID>
100150

> <source_casrn>
99-30-9

> <CAS>
99-30-9

> <SMILES>
Nc1c(Cl)cc(cc1Cl)[N+]([O-])=O

> <NAME>
2,6-DICHLORO-4-NITROANILINE

> <preferred_name>
Dicloran

> <iupac>
2,6-dichloro-4-nitroaniline

> <MPID>
99427

> <dsstox_substance_id>
DTXSID2020426

> <Canonical_QSARr>
Nc1c(Cl)cc(cc1Cl)[N+]([O-])=O

> <InChI_Code_QSARr>
InChI=1S/C6H4Cl2N2O2/c7-4-1-3(10(11)12)2-5(8)6(4)9/h1-2H,9H2

> <InChI Key_QSARr>
BIXZHMJUSMUDOQ-UHFFFAOYSA-N

> <LogKOC>
3.0

$$$$
100154
  -INDIGO-08031722282D

 18 18  0  0  0  0  0  0  0  0999 V2000
    1.6000   -0.0000    0.0000 C   0  0  0  0  0  0  0  0  0  0  0  0
    3.2000   -0.0000    0.0000 H   0  0  0  0  0  0  0  0  0  0  0  0
    2.4000   -1.3856    0.0000 H   0  0  0  0  0  0  0  0  0  0  0  0
    2.4000    1.3856    0.0000 H   0  0  0  0  0  0  0  0  0  0  0  0
   -0.0001   -0.0000    0.0000 C   0  0  0  0  0  0  0  0  0  0  0  0
   -0.8000    1.3856    0.0000 C   0  0  0  0  0  0  0  0  0  0  0  0
   -0.0001    2.7713    0.0000 H   0  0  0  0  0  0  0  0  0  0  0  0
   -2.4000    1.3856    0.0000 C   0  0  0  0  0  0  0  0  0  0  0  0
   -3.2000    2.7713    0.0000 H   0  0  0  0  0  0  0  0  0  0  0  0
   -3.2000   -0.0000    0.0000 C   0  0  0  0  0  0  0  0  0  0  0  0
   -4.8001   -0.0000    0.0000 C   0  0  0  0  0  0  0  0  0  0  0  0
   -5.6000    1.3856    0.0000 O   0  0  0  0  0  0  0  0  0  0  0  0
   -7.2000    1.3856    0.0000 H   0  0  0  0  0  0  0  0  0  0  0  0
   -5.6000   -1.3856    0.0000 O   0  0  0  0  0  0  0  0  0  0  0  0
   -2.4000   -1.3856    0.0000 C   0  0  0  0  0  0  0  0  0  0  0  0
   -3.2000   -2.7713    0.0000 H   0  0  0  0  0  0  0  0  0  0  0  0
   -0.8000   -1.3856    0.0000 C   0  0  0  0  0  0  0  0  0  0  0  0
   -0.0001   -2.7713    0.0000 H   0  0  0  0  0  0  0  0  0  0  0  0
  1  2  1  0  0  0  0
  1  3  1  0  0  0  0
  1  4  1  0  0  0  0
  1  5  1  0  0  0  0
  5  6  1  0  0  0  0
  6  7  1  0  0  0  0
  6  8  2  0  0  0  0
  8  9  1  0  0  0  0
  8 10  1  0  0  0  0
 10 11  1  0  0  0  0
 11 12  1  0  0  0  0
 12 13  1  0  0  0  0
 11 14  2  0  0  0  0
 10 15  2  0  0  0  0
 15 16  1  0  0  0  0
 15 17  1  0  0  0  0
 17  5  2  0  0  0  0
 17 18  1  0  0  0  0
M  END
> <ChemID>
100154

> <source_casrn>
99-94-5

> <CAS>
99-94-5

> <SMILES>
Cc1ccc(cc1)C(O)=O

> <NAME>
P-TOLUIC ACID

> <preferred_name>
4-Methylbenzoic acid

> <iupac>
4-methylbenzoic acid

> <MPID>
99431

> <dsstox_substance_id>
DTXSID6021618

> <Canonical_QSARr>
Cc1ccc(cc1)C(O)=O

> <InChI_Code_QSARr>
InChI=1S/C8H8O2/c1-6-2-4-7(5-3-6)8(9)10/h2-5H,1H3,(H,9,10)

> <InChI Key_QSARr>
LPNBBFKOUUSUDB-UHFFFAOYSA-N

> <LogKOC>
1.77

$$$$
100158
  -INDIGO-08031722282D

 18 18  0  0  0  0  0  0  0  0999 V2000
    0.8001   -1.3856    0.0000 C   0  0  0  0  0  0  0  0  0  0  0  0
    2.4000   -1.3856    0.0000 H   0  0  0  0  0  0  0  0  0  0  0  0
    1.6000   -2.7713    0.0000 H   0  0  0  0  0  0  0  0  0  0  0  0
    1.6000   -0.0000    0.0000 H   0  0  0  0  0  0  0  0  0  0  0  0
    0.0000   -0.0000    0.0000 C   0  0  0  0  0  0  0  0  0  0  0  0
    0.2088    1.5863    0.0000 H   0  0  0  0  0  0  0  0  0  0  0  0
    1.2694    0.9740    0.0000 H   0  0  0  0  0  0  0  0  0  0  0  0
   -1.6000    0.0000    0.0000 C   0  0  0  0  0  0  0  0  0  0  0  0
   -2.4000    1.3856    0.0000 C   0  0  0  0  0  0  0  0  0  0  0  0
   -1.6000    2.7713    0.0000 H   0  0  0  0  0  0  0  0  0  0  0  0
   -4.0000    1.3856    0.0000 C   0  0  0  0  0  0  0  0  0  0  0  0
   -4.8001    2.7713    0.0000 H   0  0  0  0  0  0  0  0  0  0  0  0
   -4.8001    0.0000    0.0000 C   0  0  0  0  0  0  0  0  0  0  0  0
   -6.4000    0.0000    0.0000 H   0  0  0  0  0  0  0  0  0  0  0  0
   -4.0000   -1.3856    0.0000 C   0  0  0  0  0  0  0  0  0  0  0  0
   -4.8001   -2.7713    0.0000 H   0  0  0  0  0  0  0  0  0  0  0  0
   -2.4000   -1.3856    0.0000 C   0  0  0  0  0  0  0  0  0  0  0  0
   -1.6000   -2.7713    0.0000 H   0  0  0  0  0  0  0  0  0  0  0  0
  1  2  1  0  0  0  0
  1  3  1  0  0  0  0
  1  4  1  0  0  0  0
  1  5  1  0  0  0  0
  5  6  1  0  0  0  0
  5  7  1  0  0  0  0
  5  8  1  0  0  0  0
  8  9  1  0  0  0  0
  9 10  1  0  0  0  0
  9 11  2  0  0  0  0
 11 12  1  0  0  0  0
 11 13  1  0  0  0  0
 13 14  1  0  0  0  0
 13 15  2  0  0  0  0
 15 16  1  0  0  0  0
 15 17  1  0  0  0  0
 17  8  2  0  0  0  0
 17 18  1  0  0  0  0
M  END
> <ChemID>
100158

> <source_casrn>
100-41-4

> <CAS>
100-41-4

> <SMILES>
CCc1ccccc1

> <NAME>
ETHYLBENZENE

> <preferred_name>
Ethylbenzene

> <iupac>
C8H10

> <MPID>
99435

> <dsstox_substance_id>
DTXSID3020596

> <Canonical_QSARr>
CCc1ccccc1

> <InChI_Code_QSARr>
InChI=1S/C8H10/c1-2-8-6-4-3-5-7-8/h3-7H,2H2,1H3

> <InChI Key_QSARr>
YNQLUTRBYVCPMQ-UHFFFAOYSA-N

> <LogKOC>
2.23

$$$$
100162
  -INDIGO-08031722282D

 12 12  0  0  0  0  0  0  0  0999 V2000
    1.3856    2.4000    0.0000 N   0  0  0  0  0  0  0  0  0  0  0  0
    2.7713    1.6000    0.0000 C   0  0  0  0  0  0  0  0  0  0  0  0
    4.1569    2.4000    0.0000 H   0  0  0  0  0  0  0  0  0  0  0  0
    2.7713   -0.0000    0.0000 C   0  0  0  0  0  0  0  0  0  0  0  0
    4.1569   -0.8000    0.0000 H   0  0  0  0  0  0  0  0  0  0  0  0
    1.3856   -0.8000    0.0000 C   0  0  0  0  0  0  0  0  0  0  0  0
    1.3856   -2.4000    0.0000 H   0  0  0  0  0  0  0  0  0  0  0  0
    0.0000    0.0000    0.0000 C   0  0  0  0  0  0  0  0  0  0  0  0
   -1.3856   -0.8000    0.0000 C   0  0  0  0  0  0  0  0  0  0  0  0
   -2.7713   -1.6000    0.0000 N   0  0  0  0  0  0  0  0  0  0  0  0
    0.0000    1.6000    0.0000 C   0  0  0  0  0  0  0  0  0  0  0  0
   -1.3856    2.4000    0.0000 H   0  0  0  0  0  0  0  0  0  0  0  0
  1  2  1  0  0  0  0
  2  3  1  0  0  0  0
  2  4  2  0  0  0  0
  4  5  1  0  0  0  0
  4  6  1  0  0  0  0
  6  7  1  0  0  0  0
  6  8  2  0  0  0  0
  8  9  1  0  0  0  0
  9 10  3  0  0  0  0
  8 11  1  0  0  0  0
 11  1  2  0  0  0  0
 11 12  1  0  0  0  0
M  END
> <ChemID>
100162

> <source_casrn>
100-54-9

> <CAS>
100-54-9

> <SMILES>
N#Cc1c[n]ccc1

> <NAME>
3-CYANOPYRIDINE

> <preferred_name>
3-Pyridinecarbonitrile

> <iupac>
pyridine-3-carbonitrile

> <MPID>
99439

> <dsstox_substance_id>
DTXSID1026665

> <Canonical_QSARr>
N#Cc1c[n]ccc1

> <InChI_Code_QSARr>
InChI=1S/C6H4N2/c7-4-6-2-1-3-8-5-6/h1-3,5H

> <InChI Key_QSARr>
GZPHSAQLYPIAIN-UHFFFAOYSA-N

> <LogKOC>
1.56

$$$$
100166
  -INDIGO-08031722282D

 26 26  0  0  0  0  0  0  0  0999 V2000
    2.7713   -1.6000    0.0000 O   0  0  0  0  0  0  0  0  0  0  0  0
    2.7713   -0.0001    0.0000 C   0  0  0  0  0  0  0  0  0  0  0  0
    4.1569    0.8000    0.0000 N   0  0  0  0  0  0  0  0  0  0  0  0
    4.1569    2.4000    0.0000 H   0  0  0  0  0  0  0  0  0  0  0  0
    5.5426    0.0001    0.0000 C   0  0  0  0  0  0  0  0  0  0  0  0
    6.9283    0.8000    0.0000 C   0  0  0  0  0  0  0  0  0  0  0  0
    6.9283    2.4000    0.0000 H   0  0  0  0  0  0  0  0  0  0  0  0
    8.3138    0.0001    0.0000 C   0  0  0  0  0  0  0  0  0  0  0  0
    9.6995    0.8000    0.0000 H   0  0  0  0  0  0  0  0  0  0  0  0
    8.3138   -1.6000    0.0000 C   0  0  0  0  0  0  0  0  0  0  0  0
    9.6995   -2.4000    0.0000 H   0  0  0  0  0  0  0  0  0  0  0  0
    6.9283   -2.4000    0.0000 C   0  0  0  0  0  0  0  0  0  0  0  0
    6.9283   -4.0000    0.0000 Cl  0  0  0  0  0  0  0  0  0  0  0  0
    5.5426   -1.6000    0.0000 C   0  0  0  0  0  0  0  0  0  0  0  0
    4.1569   -2.4000    0.0000 H   0  0  0  0  0  0  0  0  0  0  0  0
    1.3856    0.8000    0.0000 O   0  0  0  0  0  0  0  0  0  0  0  0
   -0.0001   -0.0001    0.0000 C   0  0  0  0  0  0  0  0  0  0  0  0
    0.7999   -1.3856    0.0000 H   0  0  0  0  0  0  0  0  0  0  0  0
   -1.3856   -0.8000    0.0000 C   0  0  0  0  0  0  0  0  0  0  0  0
   -2.7713   -1.6000    0.0000 H   0  0  0  0  0  0  0  0  0  0  0  0
   -2.7713    0.0001    0.0000 H   0  0  0  0  0  0  0  0  0  0  0  0
   -1.3856   -2.4000    0.0000 H   0  0  0  0  0  0  0  0  0  0  0  0
   -0.8000    1.3856    0.0000 C   0  0  0  0  0  0  0  0  0  0  0  0
   -1.6000    2.7713    0.0000 H   0  0  0  0  0  0  0  0  0  0  0  0
   -0.0001    2.7713    0.0000 H   0  0  0  0  0  0  0  0  0  0  0  0
   -2.4000    1.3856    0.0000 H   0  0  0  0  0  0  0  0  0  0  0  0
  1  2  2  0  0  0  0
  2  3  1  0  0  0  0
  3  4  1  0  0  0  0
  3  5  1  0  0  0  0
  5  6  1  0  0  0  0
  6  7  1  0  0  0  0
  6  8  2  0  0  0  0
  8  9  1  0  0  0  0
  8 10  1  0  0  0  0
 10 11  1  0  0  0  0
 10 12  2  0  0  0  0
 12 13  1  0  0  0  0
 12 14  1  0  0  0  0
 14  5  2  0  0  0  0
 14 15  1  0  0  0  0
  2 16  1  0  0  0  0
 16 17  1  0  0  0  0
 17 18  1  0  0  0  0
 17 19  1  0  0  0  0
 19 20  1  0  0  0  0
 19 21  1  0  0  0  0
 19 22  1  0  0  0  0
 17 23  1  0  0  0  0
 23 24  1  0  0  0  0
 23 25  1  0  0  0  0
 23 26  1  0  0  0  0
M  END
> <ChemID>
100166

> <source_casrn>
101-21-3

> <CAS>
101-21-3

> <SMILES>
CC(C)OC(=O)Nc1cccc(Cl)c1

> <NAME>
CHLORPROPHAM

> <preferred_name>
Chlorpropham

> <iupac>
propan-2-yl (3-chlorophenyl)carbamate

> <MPID>
99443

> <dsstox_substance_id>
DTXSID7020764

> <Canonical_QSARr>
CC(C)OC(=O)Nc1cccc(Cl)c1

> <InChI_Code_QSARr>
InChI=1S/C10H12ClNO2/c1-7(2)14-10(13)12-9-5-3-4-8(11)6-9/h3-7H,1-2H3,(H,12,13)

> <InChI Key_QSARr>
CWJSHJJYOPWUGX-UHFFFAOYSA-N

> <LogKOC>
2.6

$$$$
100170
  -INDIGO-08031722282D

 41 42  0  0  0  0  0  0  0  0999 V2000
    0.0000   -0.0000    0.0000 C   0  0  0  0  0  0  0  0  0  0  0  0
    0.8598    1.3494    0.0000 H   0  0  0  0  0  0  0  0  0  0  0  0
   -0.3463    1.5621    0.0000 H   0  0  0  0  0  0  0  0  0  0  0  0
   -1.5756   -0.2779    0.0000 C   0  0  0  0  0  0  0  0  0  0  0  0
   -2.1229   -1.7814    0.0000 C   0  0  0  0  0  0  0  0  0  0  0  0
   -1.0944   -3.0070    0.0000 H   0  0  0  0  0  0  0  0  0  0  0  0
   -3.6985   -2.0592    0.0000 C   0  0  0  0  0  0  0  0  0  0  0  0
   -4.2459   -3.5627    0.0000 H   0  0  0  0  0  0  0  0  0  0  0  0
   -4.7270   -0.8335    0.0000 C   0  0  0  0  0  0  0  0  0  0  0  0
   -6.3028   -1.1113    0.0000 N   0  0  0  0  0  0  0  0  0  0  0  0
   -7.3313    0.1144    0.0000 C   0  0  0  0  0  0  0  0  0  0  0  0
   -8.3596    1.3400    0.0000 H   0  0  0  0  0  0  0  0  0  0  0  0
   -8.9069   -0.1635    0.0000 H   0  0  0  0  0  0  0  0  0  0  0  0
   -6.7840    1.6179    0.0000 H   0  0  0  0  0  0  0  0  0  0  0  0
   -6.8499   -2.6149    0.0000 C   0  0  0  0  0  0  0  0  0  0  0  0
   -7.3973   -4.1184    0.0000 H   0  0  0  0  0  0  0  0  0  0  0  0
   -8.4258   -2.8927    0.0000 H   0  0  0  0  0  0  0  0  0  0  0  0
   -5.8215   -3.8406    0.0000 H   0  0  0  0  0  0  0  0  0  0  0  0
   -4.1799    0.6700    0.0000 C   0  0  0  0  0  0  0  0  0  0  0  0
   -5.2084    1.8957    0.0000 H   0  0  0  0  0  0  0  0  0  0  0  0
   -2.6041    0.9478    0.0000 C   0  0  0  0  0  0  0  0  0  0  0  0
   -2.0570    2.4513    0.0000 H   0  0  0  0  0  0  0  0  0  0  0  0
    1.3856   -0.8000    0.0000 C   0  0  0  0  0  0  0  0  0  0  0  0
    1.3856   -2.4000    0.0000 C   0  0  0  0  0  0  0  0  0  0  0  0
    0.0000   -3.2000    0.0000 H   0  0  0  0  0  0  0  0  0  0  0  0
    2.7712   -3.2000    0.0000 C   0  0  0  0  0  0  0  0  0  0  0  0
    2.7712   -4.8000    0.0000 H   0  0  0  0  0  0  0  0  0  0  0  0
    4.1571   -2.4000    0.0000 C   0  0  0  0  0  0  0  0  0  0  0  0
    5.5427   -3.2000    0.0000 N   0  0  0  0  0  0  0  0  0  0  0  0
    5.5427   -4.8000    0.0000 C   0  0  0  0  0  0  0  0  0  0  0  0
    5.5427   -6.4000    0.0000 H   0  0  0  0  0  0  0  0  0  0  0  0
    6.9282   -5.6000    0.0000 H   0  0  0  0  0  0  0  0  0  0  0  0
    4.1571   -5.6000    0.0000 H   0  0  0  0  0  0  0  0  0  0  0  0
    6.9282   -2.4000    0.0000 C   0  0  0  0  0  0  0  0  0  0  0  0
    8.3138   -1.6000    0.0000 H   0  0  0  0  0  0  0  0  0  0  0  0
    8.3138   -3.2000    0.0000 H   0  0  0  0  0  0  0  0  0  0  0  0
    6.9282   -0.8000    0.0000 H   0  0  0  0  0  0  0  0  0  0  0  0
    4.1571   -0.8000    0.0000 C   0  0  0  0  0  0  0  0  0  0  0  0
    5.5427   -0.0000    0.0000 H   0  0  0  0  0  0  0  0  0  0  0  0
    2.7712   -0.0000    0.0000 C   0  0  0  0  0  0  0  0  0  0  0  0
    2.7712    1.6000    0.0000 H   0  0  0  0  0  0  0  0  0  0  0  0
  1  2  1  0  0  0  0
  1  3  1  0  0  0  0
  1  4  1  0  0  0  0
  4  5  1  0  0  0  0
  5  6  1  0  0  0  0
  5  7  2  0  0  0  0
  7  8  1  0  0  0  0
  7  9  1  0  0  0  0
  9 10  1  0  0  0  0
 10 11  1  0  0  0  0
 11 12  1  0  0  0  0
 11 13  1  0  0  0  0
 11 14  1  0  0  0  0
 10 15  1  0  0  0  0
 15 16  1  0  0  0  0
 15 17  1  0  0  0  0
 15 18  1  0  0  0  0
  9 19  2  0  0  0  0
 19 20  1  0  0  0  0
 19 21  1  0  0  0  0
 21  4  2  0  0  0  0
 21 22  1  0  0  0  0
  1 23  1  0  0  0  0
 23 24  1  0  0  0  0
 24 25  1  0  0  0  0
 24 26  2  0  0  0  0
 26 27  1  0  0  0  0
 26 28  1  0  0  0  0
 28 29  1  0  0  0  0
 29 30  1  0  0  0  0
 30 31  1  0  0  0  0
 30 32  1  0  0  0  0
 30 33  1  0  0  0  0
 29 34  1  0  0  0  0
 34 35  1  0  0  0  0
 34 36  1  0  0  0  0
 34 37  1  0  0  0  0
 28 38  2  0  0  0  0
 38 39  1  0  0  0  0
 38 40  1  0  0  0  0
 40 23  2  0  0  0  0
 40 41  1  0  0  0  0
M  END
> <ChemID>
100170

> <source_casrn>
101-61-1

> <CAS>
101-61-1

> <SMILES>
CN(C)c1ccc(Cc2ccc(cc2)N(C)C)cc1

> <NAME>
BIS(4-DIMETHYLAMINOPHENYL)METHANE

> <preferred_name>
4,4'-Methylenebis(N,N-dimethylaniline)

> <iupac>
4,4'-methanediylbis(N,N-dimethylaniline)

> <MPID>
99447

> <dsstox_substance_id>
DTXSID5020869

> <Canonical_QSARr>
CN(C)c1ccc(Cc2ccc(cc2)N(C)C)cc1

> <InChI_Code_QSARr>
InChI=1S/C17H22N2/c1-18(2)16-9-5-14(6-10-16)13-15-7-11-17(12-8-15)19(3)4/h5-12H,13H2,1-4H3

> <InChI Key_QSARr>
JNRLEMMIVRBKJE-UHFFFAOYSA-N

> <LogKOC>
3.96

$$$$
100174
  -INDIGO-08031722282D

 23 23  0  0  0  0  0  0  0  0999 V2000
    6.9281    0.8000    0.0000 C   0  0  0  0  0  0  0  0  0  0  0  0
    8.3138    1.6000    0.0000 H   0  0  0  0  0  0  0  0  0  0  0  0
    8.3138   -0.0000    0.0000 H   0  0  0  0  0  0  0  0  0  0  0  0
    6.9281    2.4000    0.0000 H   0  0  0  0  0  0  0  0  0  0  0  0
    5.5426   -0.0000    0.0000 C   0  0  0  0  0  0  0  0  0  0  0  0
    4.9303   -1.4782    0.0000 H   0  0  0  0  0  0  0  0  0  0  0  0
    6.1548   -1.4782    0.0000 H   0  0  0  0  0  0  0  0  0  0  0  0
    4.1569    0.8000    0.0000 O   0  0  0  0  0  0  0  0  0  0  0  0
    2.7712   -0.0000    0.0000 C   0  0  0  0  0  0  0  0  0  0  0  0
    2.7712   -1.6000    0.0000 O   0  0  0  0  0  0  0  0  0  0  0  0
    1.3857    0.8000    0.0000 N   0  0  0  0  0  0  0  0  0  0  0  0
    1.3857    2.4000    0.0000 H   0  0  0  0  0  0  0  0  0  0  0  0
    0.0000   -0.0000    0.0000 C   0  0  0  0  0  0  0  0  0  0  0  0
    0.0000   -1.6000    0.0000 C   0  0  0  0  0  0  0  0  0  0  0  0
    1.3857   -2.4000    0.0000 H   0  0  0  0  0  0  0  0  0  0  0  0
   -1.3857   -2.4000    0.0000 C   0  0  0  0  0  0  0  0  0  0  0  0
   -1.3857   -4.0000    0.0000 H   0  0  0  0  0  0  0  0  0  0  0  0
   -2.7712   -1.6000    0.0000 C   0  0  0  0  0  0  0  0  0  0  0  0
   -4.1569   -2.4000    0.0000 H   0  0  0  0  0  0  0  0  0  0  0  0
   -2.7712   -0.0000    0.0000 C   0  0  0  0  0  0  0  0  0  0  0  0
   -4.1569    0.8000    0.0000 H   0  0  0  0  0  0  0  0  0  0  0  0
   -1.3857    0.8000    0.0000 C   0  0  0  0  0  0  0  0  0  0  0  0
   -1.3857    2.4000    0.0000 H   0  0  0  0  0  0  0  0  0  0  0  0
  1  2  1  0  0  0  0
  1  3  1  0  0  0  0
  1  4  1  0  0  0  0
  1  5  1  0  0  0  0
  5  6  1  0  0  0  0
  5  7  1  0  0  0  0
  5  8  1  0  0  0  0
  8  9  1  0  0  0  0
  9 10  2  0  0  0  0
  9 11  1  0  0  0  0
 11 12  1  0  0  0  0
 11 13  1  0  0  0  0
 13 14  1  0  0  0  0
 14 15  1  0  0  0  0
 14 16  2  0  0  0  0
 16 17  1  0  0  0  0
 16 18  1  0  0  0  0
 18 19  1  0  0  0  0
 18 20  2  0  0  0  0
 20 21  1  0  0  0  0
 20 22  1  0  0  0  0
 22 13  2  0  0  0  0
 22 23  1  0  0  0  0
M  END
> <ChemID>
100174

> <source_casrn>
101-99-5

> <CAS>
101-99-5

> <SMILES>
O=C(OCC)Nc(cccc1)c1

> <NAME>
N-PHENYL ETHYLCARBAMATE

> <preferred_name>
Carbamic acid, phenyl-, ethyl ester

> <iupac>
Ethyl N-phenylcarbamate

> <MPID>
99451

> <dsstox_substance_id>
DTXSID0059243

> <Canonical_QSARr>
CCOC(=O)Nc1ccccc1

> <InChI_Code_QSARr>
InChI=1S/C9H11NO2/c1-2-12-9(11)10-8-6-4-3-5-7-8/h3-7H,2H2,1H3,(H,10,11)

> <InChI Key_QSARr>
LBKPGNUOUPTQKA-UHFFFAOYSA-N

> <LogKOC>
1.82

$$$$
100178
  -INDIGO-08031722282D

 21 21  0  0  0  0  0  0  0  0999 V2000
   -1.3857   -0.8000    0.0000 C   0  0  0  0  0  0  0  0  0  0  0  0
   -1.3857   -2.4000    0.0000 C   0  0  0  0  0  0  0  0  0  0  0  0
    0.0001   -3.2000    0.0000 H   0  0  0  0  0  0  0  0  0  0  0  0
   -2.7713   -3.2000    0.0000 C   0  0  0  0  0  0  0  0  0  0  0  0
   -2.7713   -4.8000    0.0000 H   0  0  0  0  0  0  0  0  0  0  0  0
   -4.1569   -2.4000    0.0000 C   0  0  0  0  0  0  0  0  0  0  0  0
   -5.5426   -3.2000    0.0000 H   0  0  0  0  0  0  0  0  0  0  0  0
   -4.1569   -0.8000    0.0000 C   0  0  0  0  0  0  0  0  0  0  0  0
   -5.5426   -0.0000    0.0000 H   0  0  0  0  0  0  0  0  0  0  0  0
   -2.7713   -0.0000    0.0000 C   0  0  0  0  0  0  0  0  0  0  0  0
   -2.7713    1.6000    0.0000 H   0  0  0  0  0  0  0  0  0  0  0  0
    0.0001   -0.0000    0.0000 C   0  0  0  0  0  0  0  0  0  0  0  0
    0.6124    1.4782    0.0000 H   0  0  0  0  0  0  0  0  0  0  0  0
   -0.6122    1.4782    0.0000 H   0  0  0  0  0  0  0  0  0  0  0  0
    1.3857   -0.8000    0.0000 C   0  0  0  0  0  0  0  0  0  0  0  0
    0.7734   -2.2782    0.0000 H   0  0  0  0  0  0  0  0  0  0  0  0
    1.9980   -2.2782    0.0000 H   0  0  0  0  0  0  0  0  0  0  0  0
    2.7713   -0.0000    0.0000 C   0  0  0  0  0  0  0  0  0  0  0  0
    4.1569    0.8000    0.0000 H   0  0  0  0  0  0  0  0  0  0  0  0
    4.1569   -0.8000    0.0000 H   0  0  0  0  0  0  0  0  0  0  0  0
    2.7713    1.6000    0.0000 H   0  0  0  0  0  0  0  0  0  0  0  0
  1  2  1  0  0  0  0
  2  3  1  0  0  0  0
  2  4  2  0  0  0  0
  4  5  1  0  0  0  0
  4  6  1  0  0  0  0
  6  7  1  0  0  0  0
  6  8  2  0  0  0  0
  8  9  1  0  0  0  0
  8 10  1  0  0  0  0
 10  1  2  0  0  0  0
 10 11  1  0  0  0  0
  1 12  1  0  0  0  0
 12 13  1  0  0  0  0
 12 14  1  0  0  0  0
 12 15  1  0  0  0  0
 15 16  1  0  0  0  0
 15 17  1  0  0  0  0
 15 18  1  0  0  0  0
 18 19  1  0  0  0  0
 18 20  1  0  0  0  0
 18 21  1  0  0  0  0
M  END
> <ChemID>
100178

> <source_casrn>
103-65-1

> <CAS>
103-65-1

> <SMILES>
CCCc1ccccc1

> <NAME>
N-PROPYLBENZENE

> <preferred_name>
Propylbenzene

> <iupac>
propylbenzene

> <MPID>
99455

> <dsstox_substance_id>
DTXSID3042219

> <Canonical_QSARr>
CCCc1ccccc1

> <InChI_Code_QSARr>
InChI=1S/C9H12/c1-2-6-9-7-4-3-5-8-9/h3-5,7-8H,2,6H2,1H3

> <InChI Key_QSARr>
ODLMAHJVESYWTB-UHFFFAOYSA-N

> <LogKOC>
2.87

$$$$
100182
  -INDIGO-08031722282D

 19 19  0  0  0  0  0  0  0  0999 V2000
   -0.0001   -0.0000    0.0000 C   0  0  0  0  0  0  0  0  0  0  0  0
   -0.0001   -1.6000    0.0000 C   0  0  0  0  0  0  0  0  0  0  0  0
    1.3857   -2.4000    0.0000 H   0  0  0  0  0  0  0  0  0  0  0  0
   -1.3857   -2.4000    0.0000 C   0  0  0  0  0  0  0  0  0  0  0  0
   -1.3857   -4.0000    0.0000 H   0  0  0  0  0  0  0  0  0  0  0  0
   -2.7713   -1.6000    0.0000 C   0  0  0  0  0  0  0  0  0  0  0  0
   -4.1569   -2.4000    0.0000 Br  0  0  0  0  0  0  0  0  0  0  0  0
   -2.7713   -0.0000    0.0000 C   0  0  0  0  0  0  0  0  0  0  0  0
   -4.1569    0.8000    0.0000 H   0  0  0  0  0  0  0  0  0  0  0  0
   -1.3857    0.8000    0.0000 C   0  0  0  0  0  0  0  0  0  0  0  0
   -1.3857    2.4000    0.0000 H   0  0  0  0  0  0  0  0  0  0  0  0
    1.3857    0.8000    0.0000 N   0  0  0  0  0  0  0  0  0  0  0  0
    1.3857    2.4000    0.0000 H   0  0  0  0  0  0  0  0  0  0  0  0
    2.7713   -0.0000    0.0000 C   0  0  0  0  0  0  0  0  0  0  0  0
    4.1569    0.8000    0.0000 C   0  0  0  0  0  0  0  0  0  0  0  0
    5.5426    1.6000    0.0000 H   0  0  0  0  0  0  0  0  0  0  0  0
    5.5426   -0.0000    0.0000 H   0  0  0  0  0  0  0  0  0  0  0  0
    4.1569    2.4000    0.0000 H   0  0  0  0  0  0  0  0  0  0  0  0
    2.7713   -1.6000    0.0000 O   0  0  0  0  0  0  0  0  0  0  0  0
  1  2  1  0  0  0  0
  2  3  1  0  0  0  0
  2  4  2  0  0  0  0
  4  5  1  0  0  0  0
  4  6  1  0  0  0  0
  6  7  1  0  0  0  0
  6  8  2  0  0  0  0
  8  9  1  0  0  0  0
  8 10  1  0  0  0  0
 10  1  2  0  0  0  0
 10 11  1  0  0  0  0
  1 12  1  0  0  0  0
 12 13  1  0  0  0  0
 12 14  1  0  0  0  0
 14 15  1  0  0  0  0
 15 16  1  0  0  0  0
 15 17  1  0  0  0  0
 15 18  1  0  0  0  0
 14 19  2  0  0  0  0
M  END
> <ChemID>
100182

> <source_casrn>
103-88-8

> <CAS>
103-88-8

> <SMILES>
CC(=O)Nc1ccc(Br)cc1

> <NAME>
4-BROMOACETANILIDE

> <preferred_name>
Acetamide, N-(4-bromophenyl)-

> <iupac>
N-(4-bromophenyl)acetamide

> <MPID>
99459

> <dsstox_substance_id>
DTXSID6059283

> <Canonical_QSARr>
CC(=O)Nc1ccc(Br)cc1

> <InChI_Code_QSARr>
InChI=1S/C8H8BrNO/c1-6(11)10-8-4-2-7(9)3-5-8/h2-5H,1H3,(H,10,11)

> <InChI Key_QSARr>
MSLICLMCQYQNPK-UHFFFAOYSA-N

> <LogKOC>
1.95

$$$$
100186
  -INDIGO-08031722282D

 29 28  0  0  0  0  0  0  0  0999 V2000
   -4.1569    0.8000    0.0000 C   0  0  0  0  0  0  0  0  0  0  0  0
   -2.7712    0.0000    0.0000 C   0  0  0  0  0  0  0  0  0  0  0  0
   -2.1591   -1.4782    0.0000 H   0  0  0  0  0  0  0  0  0  0  0  0
   -3.3836   -1.4782    0.0000 H   0  0  0  0  0  0  0  0  0  0  0  0
   -1.3857    0.8000    0.0000 C   0  0  0  0  0  0  0  0  0  0  0  0
   -1.9979    2.2782    0.0000 H   0  0  0  0  0  0  0  0  0  0  0  0
   -0.7733    2.2782    0.0000 H   0  0  0  0  0  0  0  0  0  0  0  0
   -0.0000    0.0000    0.0000 C   0  0  0  0  0  0  0  0  0  0  0  0
    0.6124   -1.4782    0.0000 H   0  0  0  0  0  0  0  0  0  0  0  0
   -0.6124   -1.4782    0.0000 H   0  0  0  0  0  0  0  0  0  0  0  0
    1.3857    0.8000    0.0000 C   0  0  0  0  0  0  0  0  0  0  0  0
    0.7733    2.2782    0.0000 H   0  0  0  0  0  0  0  0  0  0  0  0
    1.9978    2.2782    0.0000 H   0  0  0  0  0  0  0  0  0  0  0  0
    2.7714    0.0000    0.0000 C   0  0  0  0  0  0  0  0  0  0  0  0
    3.3835   -1.4782    0.0000 H   0  0  0  0  0  0  0  0  0  0  0  0
    2.1590   -1.4782    0.0000 H   0  0  0  0  0  0  0  0  0  0  0  0
    4.1569    0.8000    0.0000 C   0  0  0  0  0  0  0  0  0  0  0  0
    5.5426    1.6000    0.0000 H   0  0  0  0  0  0  0  0  0  0  0  0
    5.5426    0.0000    0.0000 H   0  0  0  0  0  0  0  0  0  0  0  0
    4.1569    2.4000    0.0000 H   0  0  0  0  0  0  0  0  0  0  0  0
   -5.5426    0.0000    0.0000 O   0  0  0  0  0  0  0  0  0  0  0  0
   -6.9283    0.8000    0.0000 C   0  0  0  0  0  0  0  0  0  0  0  0
   -7.5405    2.2782    0.0000 H   0  0  0  0  0  0  0  0  0  0  0  0
   -6.3159    2.2782    0.0000 H   0  0  0  0  0  0  0  0  0  0  0  0
   -8.3138    0.0000    0.0000 C   0  0  0  0  0  0  0  0  0  0  0  0
   -9.6995   -0.8000    0.0000 H   0  0  0  0  0  0  0  0  0  0  0  0
   -9.6995    0.8000    0.0000 H   0  0  0  0  0  0  0  0  0  0  0  0
   -8.3138   -1.6000    0.0000 H   0  0  0  0  0  0  0  0  0  0  0  0
   -4.1569    2.4000    0.0000 O   0  0  0  0  0  0  0  0  0  0  0  0
  1  2  1  0  0  0  0
  2  3  1  0  0  0  0
  2  4  1  0  0  0  0
  2  5  1  0  0  0  0
  5  6  1  0  0  0  0
  5  7  1  0  0  0  0
  5  8  1  0  0  0  0
  8  9  1  0  0  0  0
  8 10  1  0  0  0  0
  8 11  1  0  0  0  0
 11 12  1  0  0  0  0
 11 13  1  0  0  0  0
 11 14  1  0  0  0  0
 14 15  1  0  0  0  0
 14 16  1  0  0  0  0
 14 17  1  0  0  0  0
 17 18  1  0  0  0  0
 17 19  1  0  0  0  0
 17 20  1  0  0  0  0
  1 21  1  0  0  0  0
 21 22  1  0  0  0  0
 22 23  1  0  0  0  0
 22 24  1  0  0  0  0
 22 25  1  0  0  0  0
 25 26  1  0  0  0  0
 25 27  1  0  0  0  0
 25 28  1  0  0  0  0
  1 29  2  0  0  0  0
M  END
> <ChemID>
100186

> <source_casrn>
106-30-9

> <CAS>
106-30-9

> <SMILES>
CCCCCCC(=O)OCC

> <NAME>
ETHYL HEPTANOATE

> <preferred_name>
Ethyl heptanoate

> <iupac>
ethyl heptanoate

> <MPID>
99463

> <dsstox_substance_id>
DTXSID1040112

> <Canonical_QSARr>
CCCCCCC(=O)OCC

> <InChI_Code_QSARr>
InChI=1S/C9H18O2/c1-3-5-6-7-8-9(10)11-4-2/h3-8H2,1-2H3

> <InChI Key_QSARr>
TVQGDYNRXLTQAP-UHFFFAOYSA-N

> <LogKOC>
2.61

$$$$
100190
  -INDIGO-08031722282D

 18 18  0  0  0  0  0  0  0  0999 V2000
    1.6001   -0.0000    0.0000 C   0  0  0  0  0  0  0  0  0  0  0  0
    3.2000   -0.0000    0.0000 H   0  0  0  0  0  0  0  0  0  0  0  0
    2.4000   -1.3856    0.0000 H   0  0  0  0  0  0  0  0  0  0  0  0
    2.4000    1.3856    0.0000 H   0  0  0  0  0  0  0  0  0  0  0  0
    0.0000   -0.0000    0.0000 C   0  0  0  0  0  0  0  0  0  0  0  0
   -0.8000    1.3856    0.0000 C   0  0  0  0  0  0  0  0  0  0  0  0
    0.0000    2.7713    0.0000 H   0  0  0  0  0  0  0  0  0  0  0  0
   -2.4000    1.3856    0.0000 C   0  0  0  0  0  0  0  0  0  0  0  0
   -3.2000    2.7713    0.0000 H   0  0  0  0  0  0  0  0  0  0  0  0
   -3.2000   -0.0000    0.0000 C   0  0  0  0  0  0  0  0  0  0  0  0
   -4.7999   -0.0000    0.0000 C   0  0  0  0  0  0  0  0  0  0  0  0
   -6.4000   -0.0000    0.0000 H   0  0  0  0  0  0  0  0  0  0  0  0
   -5.6000   -1.3856    0.0000 H   0  0  0  0  0  0  0  0  0  0  0  0
   -5.6000    1.3856    0.0000 H   0  0  0  0  0  0  0  0  0  0  0  0
   -2.4000   -1.3856    0.0000 C   0  0  0  0  0  0  0  0  0  0  0  0
   -3.2000   -2.7713    0.0000 H   0  0  0  0  0  0  0  0  0  0  0  0
   -0.8000   -1.3856    0.0000 C   0  0  0  0  0  0  0  0  0  0  0  0
    0.0000   -2.7713    0.0000 H   0  0  0  0  0  0  0  0  0  0  0  0
  1  2  1  0  0  0  0
  1  3  1  0  0  0  0
  1  4  1  0  0  0  0
  1  5  1  0  0  0  0
  5  6  1  0  0  0  0
  6  7  1  0  0  0  0
  6  8  2  0  0  0  0
  8  9  1  0  0  0  0
  8 10  1  0  0  0  0
 10 11  1  0  0  0  0
 11 12  1  0  0  0  0
 11 13  1  0  0  0  0
 11 14  1  0  0  0  0
 10 15  2  0  0  0  0
 15 16  1  0  0  0  0
 15 17  1  0  0  0  0
 17  5  2  0  0  0  0
 17 18  1  0  0  0  0
M  END
> <ChemID>
100190

> <source_casrn>
106-42-3

> <CAS>
106-42-3

> <SMILES>
Cc1ccc(C)cc1

> <NAME>
P-XYLENE

> <preferred_name>
p-Xylene

> <iupac>
1,4-dimethylbenzene

> <MPID>
99467

> <dsstox_substance_id>
DTXSID2021868

> <Canonical_QSARr>
Cc1ccc(C)cc1

> <InChI_Code_QSARr>
InChI=1S/C8H10/c1-7-3-5-8(2)6-4-7/h3-6H,1-2H3

> <InChI Key_QSARr>
URLKBWYHVLBVBO-UHFFFAOYSA-N

> <LogKOC>
2.41

$$$$
100194
  -INDIGO-08031722282D

 17 17  0  0  0  0  0  0  0  0999 V2000
    4.8000   -0.0000    0.0000 N   0  0  0  0  0  0  0  0  0  0  0  0
    5.6000    1.3856    0.0000 H   0  0  0  0  0  0  0  0  0  0  0  0
    5.6000   -1.3856    0.0000 H   0  0  0  0  0  0  0  0  0  0  0  0
    3.2000   -0.0000    0.0000 C   0  0  0  0  0  0  0  0  0  0  0  0
    2.4000    1.3856    0.0000 C   0  0  0  0  0  0  0  0  0  0  0  0
    3.2000    2.7713    0.0000 H   0  0  0  0  0  0  0  0  0  0  0  0
    0.8000    1.3856    0.0000 C   0  0  0  0  0  0  0  0  0  0  0  0
    0.0000    2.7713    0.0000 H   0  0  0  0  0  0  0  0  0  0  0  0
    0.0000   -0.0000    0.0000 C   0  0  0  0  0  0  0  0  0  0  0  0
   -1.6001   -0.0000    0.0000 C   0  0  0  0  0  0  0  0  0  0  0  0
   -3.2000   -0.0000    0.0000 H   0  0  0  0  0  0  0  0  0  0  0  0
   -2.4000   -1.3856    0.0000 H   0  0  0  0  0  0  0  0  0  0  0  0
   -2.4000    1.3856    0.0000 H   0  0  0  0  0  0  0  0  0  0  0  0
    0.8000   -1.3856    0.0000 C   0  0  0  0  0  0  0  0  0  0  0  0
    0.0000   -2.7713    0.0000 H   0  0  0  0  0  0  0  0  0  0  0  0
    2.4000   -1.3856    0.0000 C   0  0  0  0  0  0  0  0  0  0  0  0
    3.2000   -2.7713    0.0000 H   0  0  0  0  0  0  0  0  0  0  0  0
  1  2  1  0  0  0  0
  1  3  1  0  0  0  0
  1  4  1  0  0  0  0
  4  5  1  0  0  0  0
  5  6  1  0  0  0  0
  5  7  2  0  0  0  0
  7  8  1  0  0  0  0
  7  9  1  0  0  0  0
  9 10  1  0  0  0  0
 10 11  1  0  0  0  0
 10 12  1  0  0  0  0
 10 13  1  0  0  0  0
  9 14  2  0  0  0  0
 14 15  1  0  0  0  0
 14 16  1  0  0  0  0
 16  4  2  0  0  0  0
 16 17  1  0  0  0  0
M  END
> <ChemID>
100194

> <source_casrn>
106-49-0

> <CAS>
106-49-0

> <SMILES>
Cc1ccc(N)cc1

> <NAME>
P-TOLUIDINE

> <preferred_name>
4-Methylaniline

> <iupac>
4-methylaniline

> <MPID>
99471

> <dsstox_substance_id>
DTXSID6021872

> <Canonical_QSARr>
Cc1ccc(N)cc1

> <InChI_Code_QSARr>
InChI=1S/C7H9N/c1-6-2-4-7(8)5-3-6/h2-5H,8H2,1H3

> <InChI Key_QSARr>
RZXMPPFPUUCRFN-UHFFFAOYSA-N

> <LogKOC>
1.9

$$$$
100198
  -INDIGO-08031722282D

 18 18  0  0  0  0  0  0  0  0999 V2000
    2.7713    1.6000    0.0000 C   0  0  0  0  0  0  0  0  0  0  0  0
    4.1570    2.4000    0.0000 H   0  0  0  0  0  0  0  0  0  0  0  0
    2.7713    0.0000    0.0000 C   0  0  0  0  0  0  0  0  0  0  0  0
    4.1570   -0.8000    0.0000 C   0  0  0  0  0  0  0  0  0  0  0  0
    5.5426   -1.6000    0.0000 H   0  0  0  0  0  0  0  0  0  0  0  0
    5.5426    0.0000    0.0000 H   0  0  0  0  0  0  0  0  0  0  0  0
    4.1570   -2.4000    0.0000 H   0  0  0  0  0  0  0  0  0  0  0  0
    1.3857   -0.8000    0.0000 C   0  0  0  0  0  0  0  0  0  0  0  0
    1.3857   -2.4000    0.0000 H   0  0  0  0  0  0  0  0  0  0  0  0
    0.0000    0.0000    0.0000 C   0  0  0  0  0  0  0  0  0  0  0  0
   -1.3857   -0.8000    0.0000 C   0  0  0  0  0  0  0  0  0  0  0  0
   -2.7713   -1.6000    0.0000 H   0  0  0  0  0  0  0  0  0  0  0  0
   -2.7713    0.0000    0.0000 H   0  0  0  0  0  0  0  0  0  0  0  0
   -1.3857   -2.4000    0.0000 H   0  0  0  0  0  0  0  0  0  0  0  0
    0.0000    1.6000    0.0000 C   0  0  0  0  0  0  0  0  0  0  0  0
   -1.3856    2.4000    0.0000 H   0  0  0  0  0  0  0  0  0  0  0  0
    1.3857    2.4000    0.0000 C   0  0  0  0  0  0  0  0  0  0  0  0
    1.3857    4.0000    0.0000 H   0  0  0  0  0  0  0  0  0  0  0  0
  1  2  1  0  0  0  0
  1  3  1  0  0  0  0
  3  4  1  0  0  0  0
  4  5  1  0  0  0  0
  4  6  1  0  0  0  0
  4  7  1  0  0  0  0
  3  8  2  0  0  0  0
  8  9  1  0  0  0  0
  8 10  1  0  0  0  0
 10 11  1  0  0  0  0
 11 12  1  0  0  0  0
 11 13  1  0  0  0  0
 11 14  1  0  0  0  0
 10 15  2  0  0  0  0
 15 16  1  0  0  0  0
 15 17  1  0  0  0  0
 17  1  2  0  0  0  0
 17 18  1  0  0  0  0
M  END
> <ChemID>
100198

> <source_casrn>
108-38-3

> <CAS>
108-38-3

> <SMILES>
Cc1cc(C)ccc1

> <NAME>
M-XYLENE

> <preferred_name>
m-Xylene

> <iupac>
C8H10

> <MPID>
99475

> <dsstox_substance_id>
DTXSID6026298

> <Canonical_QSARr>
Cc1cc(C)ccc1

> <InChI_Code_QSARr>
InChI=1S/C8H10/c1-7-4-3-5-8(2)6-7/h3-6H,1-2H3

> <InChI Key_QSARr>
IVSZLXZYQVIEFR-UHFFFAOYSA-N

> <LogKOC>
2.25

$$$$
100202
  -INDIGO-08031722282D

 21 20  0  0  0  0  0  0  0  0999 V2000
    0.8000    1.3856    0.0000 C   0  0  0  0  0  0  0  0  0  0  0  0
    1.6000    2.7713    0.0000 H   0  0  0  0  0  0  0  0  0  0  0  0
    0.0000    2.7713    0.0000 H   0  0  0  0  0  0  0  0  0  0  0  0
    0.0000    0.0000    0.0000 C   0  0  0  0  0  0  0  0  0  0  0  0
   -0.8000   -1.3856    0.0000 H   0  0  0  0  0  0  0  0  0  0  0  0
    1.3857   -0.8000    0.0000 C   0  0  0  0  0  0  0  0  0  0  0  0
    2.7713   -1.6000    0.0000 H   0  0  0  0  0  0  0  0  0  0  0  0
    2.7713    0.0000    0.0000 H   0  0  0  0  0  0  0  0  0  0  0  0
    1.3857   -2.4000    0.0000 H   0  0  0  0  0  0  0  0  0  0  0  0
   -1.3856    0.8000    0.0000 O   0  0  0  0  0  0  0  0  0  0  0  0
   -2.7713    0.0000    0.0000 C   0  0  0  0  0  0  0  0  0  0  0  0
   -1.9713   -1.3856    0.0000 H   0  0  0  0  0  0  0  0  0  0  0  0
   -4.1569   -0.8000    0.0000 C   0  0  0  0  0  0  0  0  0  0  0  0
   -5.5426   -1.6000    0.0000 H   0  0  0  0  0  0  0  0  0  0  0  0
   -5.5426    0.0000    0.0000 H   0  0  0  0  0  0  0  0  0  0  0  0
   -4.1569   -2.4000    0.0000 Cl  0  0  0  0  0  0  0  0  0  0  0  0
   -3.5713    1.3856    0.0000 C   0  0  0  0  0  0  0  0  0  0  0  0
   -4.3713    2.7713    0.0000 H   0  0  0  0  0  0  0  0  0  0  0  0
   -2.7713    2.7713    0.0000 H   0  0  0  0  0  0  0  0  0  0  0  0
   -5.1712    1.3856    0.0000 H   0  0  0  0  0  0  0  0  0  0  0  0
    2.4000    1.3856    0.0000 Cl  0  0  0  0  0  0  0  0  0  0  0  0
  1  2  1  0  0  0  0
  1  3  1  0  0  0  0
  1  4  1  0  0  0  0
  4  5  1  0  0  0  0
  4  6  1  0  0  0  0
  6  7  1  0  0  0  0
  6  8  1  0  0  0  0
  6  9  1  0  0  0  0
  4 10  1  0  0  0  0
 10 11  1  0  0  0  0
 11 12  1  0  0  0  0
 11 13  1  0  0  0  0
 13 14  1  0  0  0  0
 13 15  1  0  0  0  0
 13 16  1  0  0  0  0
 11 17  1  0  0  0  0
 17 18  1  0  0  0  0
 17 19  1  0  0  0  0
 17 20  1  0  0  0  0
  1 21  1  0  0  0  0
M  END
> <ChemID>
100202

> <source_casrn>
108-60-1

> <CAS>
108-60-1

> <SMILES>
O(C(CCl)C)C(CCl)C

> <NAME>
DCIP  (2,2'-OXYBIS-1-CHLOROPROPANE)

> <preferred_name>
bis(2-Chloro-1-methylethyl) ether

> <iupac>
C6H12Cl2O

> <MPID>
99479

> <dsstox_substance_id>
DTXSID4020167

> <Canonical_QSARr>
CC(CCl)OC(C)CCl

> <InChI_Code_QSARr>
InChI=1S/C6H12Cl2O/c1-5(3-7)9-6(2)4-8/h5-6H,3-4H2,1-2H3

> <InChI Key_QSARr>
QCFYJCYNJLBDRT-UHFFFAOYSA-N

> <LogKOC>
1.67

$$$$
100206
  -INDIGO-08031722282D

 19 19  0  0  0  0  0  0  0  0999 V2000
    1.6000    0.0000    0.0000 C   0  0  0  0  0  0  0  0  0  0  0  0
    3.2000    0.0000    0.0000 H   0  0  0  0  0  0  0  0  0  0  0  0
    2.4001   -1.3856    0.0000 H   0  0  0  0  0  0  0  0  0  0  0  0
    2.4001    1.3856    0.0000 H   0  0  0  0  0  0  0  0  0  0  0  0
    0.0000    0.0000    0.0000 C   0  0  0  0  0  0  0  0  0  0  0  0
   -0.7999    1.3856    0.0000 C   0  0  0  0  0  0  0  0  0  0  0  0
    0.0000    2.7713    0.0000 H   0  0  0  0  0  0  0  0  0  0  0  0
   -2.3999    1.3856    0.0000 C   0  0  0  0  0  0  0  0  0  0  0  0
   -3.2000    2.7713    0.0000 C   0  0  0  0  0  0  0  0  0  0  0  0
   -3.9999    4.1569    0.0000 H   0  0  0  0  0  0  0  0  0  0  0  0
   -4.8000    2.7713    0.0000 H   0  0  0  0  0  0  0  0  0  0  0  0
   -2.3999    4.1569    0.0000 H   0  0  0  0  0  0  0  0  0  0  0  0
   -3.2000    0.0000    0.0000 C   0  0  0  0  0  0  0  0  0  0  0  0
   -4.8000    0.0000    0.0000 H   0  0  0  0  0  0  0  0  0  0  0  0
   -2.3999   -1.3856    0.0000 C   0  0  0  0  0  0  0  0  0  0  0  0
   -3.2000   -2.7713    0.0000 O   0  0  0  0  0  0  0  0  0  0  0  0
   -4.8000   -2.7713    0.0000 H   0  0  0  0  0  0  0  0  0  0  0  0
   -0.7999   -1.3856    0.0000 C   0  0  0  0  0  0  0  0  0  0  0  0
    0.0000   -2.7713    0.0000 H   0  0  0  0  0  0  0  0  0  0  0  0
  1  2  1  0  0  0  0
  1  3  1  0  0  0  0
  1  4  1  0  0  0  0
  1  5  1  0  0  0  0
  5  6  1  0  0  0  0
  6  7  1  0  0  0  0
  6  8  2  0  0  0  0
  8  9  1  0  0  0  0
  9 10  1  0  0  0  0
  9 11  1  0  0  0  0
  9 12  1  0  0  0  0
  8 13  1  0  0  0  0
 13 14  1  0  0  0  0
 13 15  2  0  0  0  0
 15 16  1  0  0  0  0
 16 17  1  0  0  0  0
 15 18  1  0  0  0  0
 18  5  2  0  0  0  0
 18 19  1  0  0  0  0
M  END
> <ChemID>
100206

> <source_casrn>
108-68-9

> <CAS>
108-68-9

> <SMILES>
Cc1cc(O)cc(C)c1

> <NAME>
3,5-DIMETHYLPHENOL

> <preferred_name>
3,5-Dimethylphenol

> <iupac>
3,5-dimethylphenol

> <MPID>
99483

> <dsstox_substance_id>
DTXSID1025148

> <Canonical_QSARr>
Cc1cc(O)cc(C)c1

> <InChI_Code_QSARr>
InChI=1S/C8H10O/c1-6-3-7(2)5-8(9)4-6/h3-5,9H,1-2H3

> <InChI Key_QSARr>
TUAMRELNJMMDMT-UHFFFAOYSA-N

> <LogKOC>
2.83

$$$$
100210
  -INDIGO-08031722282D

 12 12  0  0  0  0  0  0  0  0999 V2000
    0.8000    1.3856    0.0000 Cl  0  0  0  0  0  0  0  0  0  0  0  0
   -0.0000   -0.0000    0.0000 C   0  0  0  0  0  0  0  0  0  0  0  0
    0.8000   -1.3857    0.0000 C   0  0  0  0  0  0  0  0  0  0  0  0
    2.4000   -1.3857    0.0000 H   0  0  0  0  0  0  0  0  0  0  0  0
   -0.0000   -2.7713    0.0000 C   0  0  0  0  0  0  0  0  0  0  0  0
    0.8000   -4.1569    0.0000 H   0  0  0  0  0  0  0  0  0  0  0  0
   -1.6000   -2.7713    0.0000 C   0  0  0  0  0  0  0  0  0  0  0  0
   -2.4000   -4.1569    0.0000 H   0  0  0  0  0  0  0  0  0  0  0  0
   -2.4000   -1.3856    0.0000 C   0  0  0  0  0  0  0  0  0  0  0  0
   -4.0000   -1.3856    0.0000 H   0  0  0  0  0  0  0  0  0  0  0  0
   -1.6000   -0.0000    0.0000 C   0  0  0  0  0  0  0  0  0  0  0  0
   -2.4000    1.3856    0.0000 H   0  0  0  0  0  0  0  0  0  0  0  0
  1  2  1  0  0  0  0
  2  3  1  0  0  0  0
  3  4  1  0  0  0  0
  3  5  2  0  0  0  0
  5  6  1  0  0  0  0
  5  7  1  0  0  0  0
  7  8  1  0  0  0  0
  7  9  2  0  0  0  0
  9 10  1  0  0  0  0
  9 11  1  0  0  0  0
 11  2  2  0  0  0  0
 11 12  1  0  0  0  0
M  END
> <ChemID>
100210

> <source_casrn>
108-90-7

> <CAS>
108-90-7

> <SMILES>
Clc1ccccc1

> <NAME>
CHLOROBENZENE

> <preferred_name>
Chlorobenzene

> <iupac>
chlorobenzene

> <MPID>
99487

> <dsstox_substance_id>
DTXSID4020298

> <Canonical_QSARr>
Clc1ccccc1

> <InChI_Code_QSARr>
InChI=1S/C6H5Cl/c7-6-4-2-1-3-5-6/h1-5H

> <InChI Key_QSARr>
MVPPADPHJFYWMZ-UHFFFAOYSA-N

> <LogKOC>
2.15

$$$$
100214
  -INDIGO-08031722282D

 21 20  0  0  0  0  0  0  0  0999 V2000
    4.1569    0.8000    0.0000 C   0  0  0  0  0  0  0  0  0  0  0  0
    5.5426    1.6000    0.0000 H   0  0  0  0  0  0  0  0  0  0  0  0
    5.5426    0.0000    0.0000 H   0  0  0  0  0  0  0  0  0  0  0  0
    4.1569    2.4000    0.0000 H   0  0  0  0  0  0  0  0  0  0  0  0
    2.7712    0.0000    0.0000 C   0  0  0  0  0  0  0  0  0  0  0  0
    3.3836   -1.4782    0.0000 H   0  0  0  0  0  0  0  0  0  0  0  0
    2.1589   -1.4782    0.0000 H   0  0  0  0  0  0  0  0  0  0  0  0
    1.3856    0.8000    0.0000 C   0  0  0  0  0  0  0  0  0  0  0  0
    0.7734    2.2782    0.0000 H   0  0  0  0  0  0  0  0  0  0  0  0
    1.9979    2.2782    0.0000 H   0  0  0  0  0  0  0  0  0  0  0  0
    0.0001    0.0000    0.0000 C   0  0  0  0  0  0  0  0  0  0  0  0
    0.6122   -1.4782    0.0000 H   0  0  0  0  0  0  0  0  0  0  0  0
   -0.6122   -1.4782    0.0000 H   0  0  0  0  0  0  0  0  0  0  0  0
   -1.3856    0.8000    0.0000 C   0  0  0  0  0  0  0  0  0  0  0  0
   -1.9979    2.2782    0.0000 H   0  0  0  0  0  0  0  0  0  0  0  0
   -0.7734    2.2782    0.0000 H   0  0  0  0  0  0  0  0  0  0  0  0
   -2.7712    0.0000    0.0000 C   0  0  0  0  0  0  0  0  0  0  0  0
   -2.1589   -1.4782    0.0000 H   0  0  0  0  0  0  0  0  0  0  0  0
   -3.3836   -1.4782    0.0000 H   0  0  0  0  0  0  0  0  0  0  0  0
   -4.1569    0.8000    0.0000 O   0  0  0  0  0  0  0  0  0  0  0  0
   -5.5426    0.0000    0.0000 H   0  0  0  0  0  0  0  0  0  0  0  0
  1  2  1  0  0  0  0
  1  3  1  0  0  0  0
  1  4  1  0  0  0  0
  1  5  1  0  0  0  0
  5  6  1  0  0  0  0
  5  7  1  0  0  0  0
  5  8  1  0  0  0  0
  8  9  1  0  0  0  0
  8 10  1  0  0  0  0
  8 11  1  0  0  0  0
 11 12  1  0  0  0  0
 11 13  1  0  0  0  0
 11 14  1  0  0  0  0
 14 15  1  0  0  0  0
 14 16  1  0  0  0  0
 14 17  1  0  0  0  0
 17 18  1  0  0  0  0
 17 19  1  0  0  0  0
 17 20  1  0  0  0  0
 20 21  1  0  0  0  0
M  END
> <ChemID>
100214

> <source_casrn>
111-27-3

> <CAS>
111-27-3

> <SMILES>
CCCCCCO

> <NAME>
1-HEXANOL

> <preferred_name>
1-Hexanol

> <iupac>
hexan-1-ol

> <MPID>
99491

> <dsstox_substance_id>
DTXSID8021931

> <Canonical_QSARr>
CCCCCCO

> <InChI_Code_QSARr>
InChI=1S/C6H14O/c1-2-3-4-5-6-7/h7H,2-6H2,1H3

> <InChI Key_QSARr>
ZSIAUFGUXNUGDI-UHFFFAOYSA-N

> <LogKOC>
1.01

$$$$
100218
  -INDIGO-08031722282D

 24 23  0  0  0  0  0  0  0  0999 V2000
    4.1569    0.8000    0.0000 C   0  0  0  0  0  0  0  0  0  0  0  0
    5.5426    1.6000    0.0000 H   0  0  0  0  0  0  0  0  0  0  0  0
    5.5426    0.0000    0.0000 H   0  0  0  0  0  0  0  0  0  0  0  0
    4.1569    2.4000    0.0000 H   0  0  0  0  0  0  0  0  0  0  0  0
    2.7713    0.0000    0.0000 C   0  0  0  0  0  0  0  0  0  0  0  0
    2.1590   -1.4782    0.0000 H   0  0  0  0  0  0  0  0  0  0  0  0
    3.3835   -1.4782    0.0000 H   0  0  0  0  0  0  0  0  0  0  0  0
    1.3856    0.8000    0.0000 C   0  0  0  0  0  0  0  0  0  0  0  0
    1.9980    2.2782    0.0000 H   0  0  0  0  0  0  0  0  0  0  0  0
    0.7733    2.2782    0.0000 H   0  0  0  0  0  0  0  0  0  0  0  0
   -0.0001    0.0000    0.0000 C   0  0  0  0  0  0  0  0  0  0  0  0
   -0.6122   -1.4782    0.0000 H   0  0  0  0  0  0  0  0  0  0  0  0
    0.6123   -1.4782    0.0000 H   0  0  0  0  0  0  0  0  0  0  0  0
   -1.3856    0.8000    0.0000 C   0  0  0  0  0  0  0  0  0  0  0  0
   -0.7734    2.2782    0.0000 H   0  0  0  0  0  0  0  0  0  0  0  0
   -1.9979    2.2782    0.0000 H   0  0  0  0  0  0  0  0  0  0  0  0
   -2.7713    0.0000    0.0000 C   0  0  0  0  0  0  0  0  0  0  0  0
   -3.3836   -1.4782    0.0000 H   0  0  0  0  0  0  0  0  0  0  0  0
   -2.1589   -1.4782    0.0000 H   0  0  0  0  0  0  0  0  0  0  0  0
   -4.1570    0.8000    0.0000 C   0  0  0  0  0  0  0  0  0  0  0  0
   -3.5446    2.2782    0.0000 H   0  0  0  0  0  0  0  0  0  0  0  0
   -4.7692    2.2782    0.0000 H   0  0  0  0  0  0  0  0  0  0  0  0
   -5.5425    0.0000    0.0000 O   0  0  0  0  0  0  0  0  0  0  0  0
   -6.9282    0.8000    0.0000 H   0  0  0  0  0  0  0  0  0  0  0  0
  1  2  1  0  0  0  0
  1  3  1  0  0  0  0
  1  4  1  0  0  0  0
  1  5  1  0  0  0  0
  5  6  1  0  0  0  0
  5  7  1  0  0  0  0
  5  8  1  0  0  0  0
  8  9  1  0  0  0  0
  8 10  1  0  0  0  0
  8 11  1  0  0  0  0
 11 12  1  0  0  0  0
 11 13  1  0  0  0  0
 11 14  1  0  0  0  0
 14 15  1  0  0  0  0
 14 16  1  0  0  0  0
 14 17  1  0  0  0  0
 17 18  1  0  0  0  0
 17 19  1  0  0  0  0
 17 20  1  0  0  0  0
 20 21  1  0  0  0  0
 20 22  1  0  0  0  0
 20 23  1  0  0  0  0
 23 24  1  0  0  0  0
M  END
> <ChemID>
100218

> <source_casrn>
111-70-6

> <CAS>
111-70-6

> <SMILES>
CCCCCCCO

> <NAME>
1-HEPTANOL

> <preferred_name>
1-Heptanol

> <iupac>
heptan-1-ol

> <MPID>
99495

> <dsstox_substance_id>
DTXSID8021937

> <Canonical_QSARr>
CCCCCCCO

> <InChI_Code_QSARr>
InChI=1S/C7H16O/c1-2-3-4-5-6-7-8/h8H,2-7H2,1H3

> <InChI Key_QSARr>
BBMCTIGTTCKYKF-UHFFFAOYSA-N

> <LogKOC>
1.14

$$$$
100222
  -INDIGO-08031722282D

 33 32  0  0  0  0  0  0  0  0999 V2000
    6.9283    0.8000    0.0000 C   0  0  0  0  0  0  0  0  0  0  0  0
    8.3138    1.6000    0.0000 H   0  0  0  0  0  0  0  0  0  0  0  0
    8.3138    0.0000    0.0000 H   0  0  0  0  0  0  0  0  0  0  0  0
    6.9283    2.4000    0.0000 H   0  0  0  0  0  0  0  0  0  0  0  0
    5.5427    0.0000    0.0000 C   0  0  0  0  0  0  0  0  0  0  0  0
    6.1549   -1.4782    0.0000 H   0  0  0  0  0  0  0  0  0  0  0  0
    4.9302   -1.4782    0.0000 H   0  0  0  0  0  0  0  0  0  0  0  0
    4.1569    0.8000    0.0000 C   0  0  0  0  0  0  0  0  0  0  0  0
    3.5446    2.2782    0.0000 H   0  0  0  0  0  0  0  0  0  0  0  0
    4.7691    2.2782    0.0000 H   0  0  0  0  0  0  0  0  0  0  0  0
    2.7713    0.0000    0.0000 C   0  0  0  0  0  0  0  0  0  0  0  0
    3.3835   -1.4782    0.0000 H   0  0  0  0  0  0  0  0  0  0  0  0
    2.1590   -1.4782    0.0000 H   0  0  0  0  0  0  0  0  0  0  0  0
    1.3857    0.8000    0.0000 C   0  0  0  0  0  0  0  0  0  0  0  0
    0.7735    2.2782    0.0000 H   0  0  0  0  0  0  0  0  0  0  0  0
    1.9979    2.2782    0.0000 H   0  0  0  0  0  0  0  0  0  0  0  0
    0.0001    0.0000    0.0000 C   0  0  0  0  0  0  0  0  0  0  0  0
    0.6124   -1.4782    0.0000 H   0  0  0  0  0  0  0  0  0  0  0  0
   -0.6124   -1.4782    0.0000 H   0  0  0  0  0  0  0  0  0  0  0  0
   -1.3857    0.8000    0.0000 C   0  0  0  0  0  0  0  0  0  0  0  0
   -1.9979    2.2782    0.0000 H   0  0  0  0  0  0  0  0  0  0  0  0
   -0.7735    2.2782    0.0000 H   0  0  0  0  0  0  0  0  0  0  0  0
   -2.7713    0.0000    0.0000 C   0  0  0  0  0  0  0  0  0  0  0  0
   -2.1590   -1.4782    0.0000 H   0  0  0  0  0  0  0  0  0  0  0  0
   -3.3835   -1.4782    0.0000 H   0  0  0  0  0  0  0  0  0  0  0  0
   -4.1569    0.8000    0.0000 C   0  0  0  0  0  0  0  0  0  0  0  0
   -4.7691    2.2782    0.0000 H   0  0  0  0  0  0  0  0  0  0  0  0
   -3.5446    2.2782    0.0000 H   0  0  0  0  0  0  0  0  0  0  0  0
   -5.5427    0.0000    0.0000 C   0  0  0  0  0  0  0  0  0  0  0  0
   -4.9302   -1.4782    0.0000 H   0  0  0  0  0  0  0  0  0  0  0  0
   -6.1549   -1.4782    0.0000 H   0  0  0  0  0  0  0  0  0  0  0  0
   -6.9283    0.8000    0.0000 O   0  0  0  0  0  0  0  0  0  0  0  0
   -8.3138    0.0000    0.0000 H   0  0  0  0  0  0  0  0  0  0  0  0
  1  2  1  0  0  0  0
  1  3  1  0  0  0  0
  1  4  1  0  0  0  0
  1  5  1  0  0  0  0
  5  6  1  0  0  0  0
  5  7  1  0  0  0  0
  5  8  1  0  0  0  0
  8  9  1  0  0  0  0
  8 10  1  0  0  0  0
  8 11  1  0  0  0  0
 11 12  1  0  0  0  0
 11 13  1  0  0  0  0
 11 14  1  0  0  0  0
 14 15  1  0  0  0  0
 14 16  1  0  0  0  0
 14 17  1  0  0  0  0
 17 18  1  0  0  0  0
 17 19  1  0  0  0  0
 17 20  1  0  0  0  0
 20 21  1  0  0  0  0
 20 22  1  0  0  0  0
 20 23  1  0  0  0  0
 23 24  1  0  0  0  0
 23 25  1  0  0  0  0
 23 26  1  0  0  0  0
 26 27  1  0  0  0  0
 26 28  1  0  0  0  0
 26 29  1  0  0  0  0
 29 30  1  0  0  0  0
 29 31  1  0  0  0  0
 29 32  1  0  0  0  0
 32 33  1  0  0  0  0
M  END
> <ChemID>
100222

> <source_casrn>
112-30-1

> <CAS>
112-30-1

> <SMILES>
CCCCCCCCCCO

> <NAME>
1-DECANOL

> <preferred_name>
1-Decanol

> <iupac>
decan-1-ol

> <MPID>
99499

> <dsstox_substance_id>
DTXSID7021946

> <Canonical_QSARr>
CCCCCCCCCCO

> <InChI_Code_QSARr>
InChI=1S/C10H22O/c1-2-3-4-5-6-7-8-9-10-11/h11H,2-10H2,1H3

> <InChI Key_QSARr>
MWKFXSUHUHTGQN-UHFFFAOYSA-N

> <LogKOC>
2.59

$$$$
100226
  -INDIGO-08031722282D

 23 24  0  0  0  0  0  0  0  0999 V2000
    1.2788   -0.6865    0.0000 C   0  0  0  0  0  0  0  0  0  0  0  0
    2.0141    0.7841    0.0000 C   0  0  0  0  0  0  0  0  0  0  0  0
    3.5511    1.2285    0.0000 Cl  0  0  0  0  0  0  0  0  0  0  0  0
    0.6372    1.6175    0.0000 C   0  0  0  0  0  0  0  0  0  0  0  0
   -0.8735    0.8197    0.0000 C   0  0  0  0  0  0  0  0  0  0  0  0
   -2.4611    1.0179    0.0000 H   0  0  0  0  0  0  0  0  0  0  0  0
   -1.5015   -0.5526    0.0000 C   0  0  0  0  0  0  0  0  0  0  0  0
   -1.3545   -2.1459    0.0000 H   0  0  0  0  0  0  0  0  0  0  0  0
   -3.0788   -0.2841    0.0000 C   0  0  0  0  0  0  0  0  0  0  0  0
   -3.6350    1.2161    0.0000 O   0  0  0  0  0  0  0  0  0  0  0  0
   -4.1000   -1.5159    0.0000 O   0  0  0  0  0  0  0  0  0  0  0  0
   -5.6773   -1.2475    0.0000 H   0  0  0  0  0  0  0  0  0  0  0  0
    0.0000    0.0000    0.0000 C   0  0  0  0  0  0  0  0  0  0  0  0
    0.2631    3.0924    0.0000 C   0  0  0  0  0  0  0  0  0  0  0  0
    1.5261    4.0745    0.0000 Cl  0  0  0  0  0  0  0  0  0  0  0  0
   -0.4093    3.5518    0.0000 Cl  0  0  0  0  0  0  0  0  0  0  0  0
   -0.1119   -1.5961    0.0000 Cl  0  0  0  0  0  0  0  0  0  0  0  0
   -1.4301    2.3198    0.0000 C   0  0  0  0  0  0  0  0  0  0  0  0
   -1.2806    3.1203    0.0000 O   0  0  0  0  0  0  0  0  0  0  0  0
   -3.0076    2.5877    0.0000 O   0  0  0  0  0  0  0  0  0  0  0  0
   -3.5642    4.0877    0.0000 H   0  0  0  0  0  0  0  0  0  0  0  0
    1.9230    2.5698    0.0000 Cl  0  0  0  0  0  0  0  0  0  0  0  0
    1.7626   -2.2115    0.0000 Cl  0  0  0  0  0  0  0  0  0  0  0  0
  1  2  2  0  0  0  0
  2  3  1  0  0  0  0
  2  4  1  0  0  0  0
  4  5  1  0  0  0  0
  5  6  1  0  0  0  0
  5  7  1  0  0  0  0
  7  8  1  0  0  0  0
  7  9  1  0  0  0  0
  9 10  2  0  0  0  0
  9 11  1  0  0  0  0
 11 12  1  0  0  0  0
  7 13  1  0  0  0  0
 13  1  1  0  0  0  0
 13 14  1  0  0  0  0
 14  4  1  0  0  0  0
 14 15  1  0  0  0  0
 14 16  1  0  0  0  0
 13 17  1  0  0  0  0
  5 18  1  0  0  0  0
 18 19  2  0  0  0  0
 18 20  1  0  0  0  0
 20 21  1  0  0  0  0
  4 22  1  0  0  0  0
  1 23  1  0  0  0  0
M  END
> <ChemID>
100226

> <source_casrn>
115-28-6

> <CAS>
115-28-6

> <SMILES>
O=C(O)C(C(C(=C(C12Cl)Cl)Cl)(C1(Cl)Cl)Cl)C2C(=O)O

> <NAME>
CHLORENDIC ACID

> <preferred_name>
Chlorendic acid

> <iupac>
1,4,5,6,7,7-hexachlorobicyclo[2.2.1]hept-5-ene-2,3-dicarboxylic acid

> <MPID>
99503

> <dsstox_substance_id>
DTXSID2020268

> <Canonical_QSARr>
OC(=O)C1C(C(O)=O)C2(Cl)C(Cl)=C(Cl)C1(Cl)C2(Cl)Cl

> <InChI_Code_QSARr>
InChI=1S/C9H4Cl6O4/c10-3-4(11)8(13)2(6(18)19)1(5(16)17)7(3,12)9(8,14)15/h1-2H,(H,16,17)(H,18,19)

> <InChI Key_QSARr>
DJKGDNKYTKCJKD-UHFFFAOYSA-N

> <LogKOC>
2.79

$$$$
100230
  -INDIGO-08031722282D

 26 25  0  0  0  0  0  0  0  0999 V2000
    0.8000   -1.3856    0.0000 C   0  0  0  0  0  0  0  0  0  0  0  0
    1.6000   -2.7713    0.0000 H   0  0  0  0  0  0  0  0  0  0  0  0
   -0.0001   -2.7713    0.0000 H   0  0  0  0  0  0  0  0  0  0  0  0
    2.3999   -1.3856    0.0000 H   0  0  0  0  0  0  0  0  0  0  0  0
   -0.0001    0.0000    0.0000 C   0  0  0  0  0  0  0  0  0  0  0  0
    1.3856    0.8000    0.0000 C   0  0  0  0  0  0  0  0  0  0  0  0
    1.3856    2.4000    0.0000 H   0  0  0  0  0  0  0  0  0  0  0  0
    2.7714    0.0000    0.0000 N   0  0  0  0  0  0  0  0  0  0  0  0
    4.1569    0.8000    0.0000 O   0  0  0  0  0  0  0  0  0  0  0  0
    5.5425    0.0000    0.0000 C   0  0  0  0  0  0  0  0  0  0  0  0
    5.5425   -1.6000    0.0000 O   0  0  0  0  0  0  0  0  0  0  0  0
    6.9282    0.8000    0.0000 N   0  0  0  0  0  0  0  0  0  0  0  0
    6.9282    2.4000    0.0000 H   0  0  0  0  0  0  0  0  0  0  0  0
    8.3139    0.0000    0.0000 C   0  0  0  0  0  0  0  0  0  0  0  0
    9.6995   -0.8000    0.0000 H   0  0  0  0  0  0  0  0  0  0  0  0
    9.6995    0.8000    0.0000 H   0  0  0  0  0  0  0  0  0  0  0  0
    8.3137   -1.6000    0.0000 H   0  0  0  0  0  0  0  0  0  0  0  0
   -1.3856   -0.8000    0.0000 S   0  0  0  0  0  0  0  0  0  0  0  0
   -2.7714    0.0000    0.0000 C   0  0  0  0  0  0  0  0  0  0  0  0
   -4.1569   -0.8000    0.0000 H   0  0  0  0  0  0  0  0  0  0  0  0
   -4.1569    0.8000    0.0000 H   0  0  0  0  0  0  0  0  0  0  0  0
   -2.7712   -1.6000    0.0000 H   0  0  0  0  0  0  0  0  0  0  0  0
   -0.8000    1.3856    0.0000 C   0  0  0  0  0  0  0  0  0  0  0  0
   -1.6000    2.7713    0.0000 H   0  0  0  0  0  0  0  0  0  0  0  0
   -2.3999    1.3856    0.0000 H   0  0  0  0  0  0  0  0  0  0  0  0
   -0.0001    2.7713    0.0000 H   0  0  0  0  0  0  0  0  0  0  0  0
  1  2  1  0  0  0  0
  1  3  1  0  0  0  0
  1  4  1  0  0  0  0
  1  5  1  0  0  0  0
  5  6  1  0  0  0  0
  6  7  1  0  0  0  0
  6  8  2  0  0  0  0
  8  9  1  0  0  0  0
  9 10  1  0  0  0  0
 10 11  2  0  0  0  0
 10 12  1  0  0  0  0
 12 13  1  0  0  0  0
 12 14  1  0  0  0  0
 14 15  1  0  0  0  0
 14 16  1  0  0  0  0
 14 17  1  0  0  0  0
  5 18  1  0  0  0  0
 18 19  1  0  0  0  0
 19 20  1  0  0  0  0
 19 21  1  0  0  0  0
 19 22  1  0  0  0  0
  5 23  1  0  0  0  0
 23 24  1  0  0  0  0
 23 25  1  0  0  0  0
 23 26  1  0  0  0  0
M  END
> <ChemID>
100230

> <source_casrn>
116-06-3

> <CAS>
116-06-3

> <SMILES>
CNC(=O)ON=CC(C)(C)SC

> <NAME>
ALDICARB

> <preferred_name>
Aldicarb

> <iupac>
7,7-dimethyl-4-oxa-8-thia-2,5-diazanon-5-en-3-one

> <MPID>
99507

> <dsstox_substance_id>
DTXSID0039223

> <Canonical_QSARr>
CNC(=O)ON=CC(C)(C)SC

> <InChI_Code_QSARr>
InChI=1S/C7H14N2O2S/c1-7(2,12-4)5-9-11-6(10)8-3/h5H,1-4H3,(H,8,10)/b9-5+

> <InChI Key_QSARr>
QGLZXHRNAYXIBU-WEVVVXLNSA-N

> <LogKOC>
1.5

$$$$
100234
  -INDIGO-08031722282D

 66 66  0  0  0  0  0  0  0  0999 V2000
    8.8000   -4.1569    0.0000 C   0  0  0  0  0  0  0  0  0  0  0  0
    9.5999   -2.7714    0.0000 C   0  0  0  0  0  0  0  0  0  0  0  0
    8.8000   -1.3856    0.0000 O   0  0  0  0  0  0  0  0  0  0  0  0
   11.1999   -2.7714    0.0000 O   0  0  0  0  0  0  0  0  0  0  0  0
   12.0002   -1.3856    0.0000 C   0  0  0  0  0  0  0  0  0  0  0  0
   10.7306   -0.4117    0.0000 H   0  0  0  0  0  0  0  0  0  0  0  0
   11.7910    0.2007    0.0000 H   0  0  0  0  0  0  0  0  0  0  0  0
   13.5998   -1.3856    0.0000 C   0  0  0  0  0  0  0  0  0  0  0  0
   14.8694   -2.3597    0.0000 H   0  0  0  0  0  0  0  0  0  0  0  0
   13.8090   -2.9719    0.0000 H   0  0  0  0  0  0  0  0  0  0  0  0
   14.4001   -0.0000    0.0000 C   0  0  0  0  0  0  0  0  0  0  0  0
   13.1305    0.9741    0.0000 H   0  0  0  0  0  0  0  0  0  0  0  0
   14.1913    1.5863    0.0000 H   0  0  0  0  0  0  0  0  0  0  0  0
   16.0001   -0.0000    0.0000 C   0  0  0  0  0  0  0  0  0  0  0  0
   17.2693   -0.9739    0.0000 H   0  0  0  0  0  0  0  0  0  0  0  0
   16.2089   -1.5863    0.0000 H   0  0  0  0  0  0  0  0  0  0  0  0
   16.8000    1.3856    0.0000 C   0  0  0  0  0  0  0  0  0  0  0  0
   15.5308    2.3597    0.0000 H   0  0  0  0  0  0  0  0  0  0  0  0
   16.5912    2.9720    0.0000 H   0  0  0  0  0  0  0  0  0  0  0  0
   18.4000    1.3856    0.0000 C   0  0  0  0  0  0  0  0  0  0  0  0
   19.6692    0.4116    0.0000 H   0  0  0  0  0  0  0  0  0  0  0  0
   18.6088   -0.2007    0.0000 H   0  0  0  0  0  0  0  0  0  0  0  0
   19.1999    2.7713    0.0000 C   0  0  0  0  0  0  0  0  0  0  0  0
   17.9307    3.7452    0.0000 H   0  0  0  0  0  0  0  0  0  0  0  0
   18.9911    4.3576    0.0000 H   0  0  0  0  0  0  0  0  0  0  0  0
   20.7999    2.7713    0.0000 C   0  0  0  0  0  0  0  0  0  0  0  0
   22.4000    2.7713    0.0000 H   0  0  0  0  0  0  0  0  0  0  0  0
   21.6002    4.1569    0.0000 H   0  0  0  0  0  0  0  0  0  0  0  0
   21.6002    1.3856    0.0000 H   0  0  0  0  0  0  0  0  0  0  0  0
    7.2000   -4.1569    0.0000 C   0  0  0  0  0  0  0  0  0  0  0  0
    6.4001   -2.7714    0.0000 C   0  0  0  0  0  0  0  0  0  0  0  0
    7.2000   -1.3856    0.0000 O   0  0  0  0  0  0  0  0  0  0  0  0
    4.8001   -2.7714    0.0000 O   0  0  0  0  0  0  0  0  0  0  0  0
    3.9998   -1.3856    0.0000 C   0  0  0  0  0  0  0  0  0  0  0  0
    4.2090    0.2007    0.0000 H   0  0  0  0  0  0  0  0  0  0  0  0
    5.2694   -0.4117    0.0000 H   0  0  0  0  0  0  0  0  0  0  0  0
    2.4002   -1.3856    0.0000 C   0  0  0  0  0  0  0  0  0  0  0  0
    2.1910   -2.9719    0.0000 H   0  0  0  0  0  0  0  0  0  0  0  0
    1.1306   -2.3597    0.0000 H   0  0  0  0  0  0  0  0  0  0  0  0
    1.5999   -0.0000    0.0000 C   0  0  0  0  0  0  0  0  0  0  0  0
    1.8087    1.5863    0.0000 H   0  0  0  0  0  0  0  0  0  0  0  0
    2.8695    0.9741    0.0000 H   0  0  0  0  0  0  0  0  0  0  0  0
   -0.0001   -0.0000    0.0000 C   0  0  0  0  0  0  0  0  0  0  0  0
   -0.2089   -1.5863    0.0000 H   0  0  0  0  0  0  0  0  0  0  0  0
   -1.2693   -0.9739    0.0000 H   0  0  0  0  0  0  0  0  0  0  0  0
   -0.8000    1.3856    0.0000 C   0  0  0  0  0  0  0  0  0  0  0  0
   -0.5912    2.9720    0.0000 H   0  0  0  0  0  0  0  0  0  0  0  0
    0.4692    2.3597    0.0000 H   0  0  0  0  0  0  0  0  0  0  0  0
   -2.4000    1.3856    0.0000 C   0  0  0  0  0  0  0  0  0  0  0  0
   -2.6088   -0.2007    0.0000 H   0  0  0  0  0  0  0  0  0  0  0  0
   -3.6692    0.4116    0.0000 H   0  0  0  0  0  0  0  0  0  0  0  0
   -3.1999    2.7713    0.0000 C   0  0  0  0  0  0  0  0  0  0  0  0
   -2.9911    4.3576    0.0000 H   0  0  0  0  0  0  0  0  0  0  0  0
   -1.9307    3.7452    0.0000 H   0  0  0  0  0  0  0  0  0  0  0  0
   -4.7999    2.7713    0.0000 C   0  0  0  0  0  0  0  0  0  0  0  0
   -6.4000    2.7713    0.0000 H   0  0  0  0  0  0  0  0  0  0  0  0
   -5.6002    4.1569    0.0000 H   0  0  0  0  0  0  0  0  0  0  0  0
   -5.6002    1.3856    0.0000 H   0  0  0  0  0  0  0  0  0  0  0  0
    6.4001   -5.5425    0.0000 C   0  0  0  0  0  0  0  0  0  0  0  0
    4.8001   -5.5425    0.0000 H   0  0  0  0  0  0  0  0  0  0  0  0
    7.2000   -6.9283    0.0000 C   0  0  0  0  0  0  0  0  0  0  0  0
    6.4001   -8.3138    0.0000 H   0  0  0  0  0  0  0  0  0  0  0  0
    8.8000   -6.9283    0.0000 C   0  0  0  0  0  0  0  0  0  0  0  0
    9.5999   -8.3138    0.0000 H   0  0  0  0  0  0  0  0  0  0  0  0
    9.5999   -5.5425    0.0000 C   0  0  0  0  0  0  0  0  0  0  0  0
   11.1999   -5.5425    0.0000 H   0  0  0  0  0  0  0  0  0  0  0  0
  1  2  1  0  0  0  0
  2  3  2  0  0  0  0
  2  4  1  0  0  0  0
  4  5  1  0  0  0  0
  5  6  1  0  0  0  0
  5  7  1  0  0  0  0
  5  8  1  0  0  0  0
  8  9  1  0  0  0  0
  8 10  1  0  0  0  0
  8 11  1  0  0  0  0
 11 12  1  0  0  0  0
 11 13  1  0  0  0  0
 11 14  1  0  0  0  0
 14 15  1  0  0  0  0
 14 16  1  0  0  0  0
 14 17  1  0  0  0  0
 17 18  1  0  0  0  0
 17 19  1  0  0  0  0
 17 20  1  0  0  0  0
 20 21  1  0  0  0  0
 20 22  1  0  0  0  0
 20 23  1  0  0  0  0
 23 24  1  0  0  0  0
 23 25  1  0  0  0  0
 23 26  1  0  0  0  0
 26 27  1  0  0  0  0
 26 28  1  0  0  0  0
 26 29  1  0  0  0  0
  1 30  1  0  0  0  0
 30 31  1  0  0  0  0
 31 32  2  0  0  0  0
 31 33  1  0  0  0  0
 33 34  1  0  0  0  0
 34 35  1  0  0  0  0
 34 36  1  0  0  0  0
 34 37  1  0  0  0  0
 37 38  1  0  0  0  0
 37 39  1  0  0  0  0
 37 40  1  0  0  0  0
 40 41  1  0  0  0  0
 40 42  1  0  0  0  0
 40 43  1  0  0  0  0
 43 44  1  0  0  0  0
 43 45  1  0  0  0  0
 43 46  1  0  0  0  0
 46 47  1  0  0  0  0
 46 48  1  0  0  0  0
 46 49  1  0  0  0  0
 49 50  1  0  0  0  0
 49 51  1  0  0  0  0
 49 52  1  0  0  0  0
 52 53  1  0  0  0  0
 52 54  1  0  0  0  0
 52 55  1  0  0  0  0
 55 56  1  0  0  0  0
 55 57  1  0  0  0  0
 55 58  1  0  0  0  0
 30 59  2  0  0  0  0
 59 60  1  0  0  0  0
 59 61  1  0  0  0  0
 61 62  1  0  0  0  0
 61 63  2  0  0  0  0
 63 64  1  0  0  0  0
 63 65  1  0  0  0  0
 65  1  2  0  0  0  0
 65 66  1  0  0  0  0
M  END
> <ChemID>
100234

> <source_casrn>
117-84-0

> <CAS>
117-84-0

> <SMILES>
CCCCCCCCOC(=O)c1ccccc1C(=O)OCCCCCCCC

> <NAME>
DIOCTYL PHTHALATE

> <preferred_name>
Dioctyl phthalate

> <iupac>
dioctyl benzene-1,2-dicarboxylate

> <MPID>
99511

> <dsstox_substance_id>
DTXSID1021956

> <Canonical_QSARr>
CCCCCCCCOC(=O)c1ccccc1C(=O)OCCCCCCCC

> <InChI_Code_QSARr>
InChI=1S/C24H38O4/c1-3-5-7-9-11-15-19-27-23(25)21-17-13-14-18-22(21)24(26)28-20-16-12-10-8-6-4-2/h13-14,17-18H,3-12,15-16,19-20H2,1-2H3

> <InChI Key_QSARr>
MQIUGAXCHLFZKX-UHFFFAOYSA-N

> <LogKOC>
4.38

$$$$
100238
  -INDIGO-08031722282D

 32 35  0  0  0  0  0  0  0  0999 V2000
    3.2001    0.0001    0.0000 C   0  0  0  0  0  0  0  0  0  0  0  0
    4.7999   -0.0001    0.0000 C   0  0  0  0  0  0  0  0  0  0  0  0
    5.6000   -1.3856    0.0000 N   0  0  0  0  0  0  0  0  0  0  0  0
    7.2001   -1.3856    0.0000 C   0  0  0  0  0  0  0  0  0  0  0  0
    7.9999    0.0001    0.0000 C   0  0  0  0  0  0  0  0  0  0  0  0
    9.6001   -0.0001    0.0000 C   0  0  0  0  0  0  0  0  0  0  0  0
   10.4001    1.3856    0.0000 H   0  0  0  0  0  0  0  0  0  0  0  0
   10.4001   -1.3856    0.0000 C   0  0  0  0  0  0  0  0  0  0  0  0
   12.0000   -1.3856    0.0000 H   0  0  0  0  0  0  0  0  0  0  0  0
    9.6001   -2.7712    0.0000 C   0  0  0  0  0  0  0  0  0  0  0  0
   10.4001   -4.1569    0.0000 H   0  0  0  0  0  0  0  0  0  0  0  0
    7.9999   -2.7712    0.0000 C   0  0  0  0  0  0  0  0  0  0  0  0
    7.2001   -4.1569    0.0000 H   0  0  0  0  0  0  0  0  0  0  0  0
    7.2001    1.3856    0.0000 C   0  0  0  0  0  0  0  0  0  0  0  0
    7.9999    2.7713    0.0000 H   0  0  0  0  0  0  0  0  0  0  0  0
    5.6000    1.3856    0.0000 C   0  0  0  0  0  0  0  0  0  0  0  0
    4.7999    2.7713    0.0000 H   0  0  0  0  0  0  0  0  0  0  0  0
    2.4000    1.3856    0.0000 N   0  0  0  0  0  0  0  0  0  0  0  0
    0.8001    1.3856    0.0000 C   0  0  0  0  0  0  0  0  0  0  0  0
    0.0001    0.0001    0.0000 C   0  0  0  0  0  0  0  0  0  0  0  0
   -1.6001    0.0001    0.0000 C   0  0  0  0  0  0  0  0  0  0  0  0
   -2.4001   -1.3856    0.0000 H   0  0  0  0  0  0  0  0  0  0  0  0
   -2.3999    1.3856    0.0000 C   0  0  0  0  0  0  0  0  0  0  0  0
   -4.0000    1.3856    0.0000 H   0  0  0  0  0  0  0  0  0  0  0  0
   -1.6001    2.7712    0.0000 C   0  0  0  0  0  0  0  0  0  0  0  0
   -2.4001    4.1569    0.0000 H   0  0  0  0  0  0  0  0  0  0  0  0
    0.0001    2.7712    0.0000 C   0  0  0  0  0  0  0  0  0  0  0  0
    0.7999    4.1569    0.0000 H   0  0  0  0  0  0  0  0  0  0  0  0
    0.8001   -1.3856    0.0000 C   0  0  0  0  0  0  0  0  0  0  0  0
    0.0001   -2.7712    0.0000 H   0  0  0  0  0  0  0  0  0  0  0  0
    2.4000   -1.3856    0.0000 C   0  0  0  0  0  0  0  0  0  0  0  0
    3.2001   -2.7712    0.0000 H   0  0  0  0  0  0  0  0  0  0  0  0
  1  2  1  0  0  0  0
  2  3  1  0  0  0  0
  3  4  2  0  0  0  0
  4  5  1  0  0  0  0
  5  6  1  0  0  0  0
  6  7  1  0  0  0  0
  6  8  2  0  0  0  0
  8  9  1  0  0  0  0
  8 10  1  0  0  0  0
 10 11  1  0  0  0  0
 10 12  2  0  0  0  0
 12  4  1  0  0  0  0
 12 13  1  0  0  0  0
  5 14  2  0  0  0  0
 14 15  1  0  0  0  0
 14 16  1  0  0  0  0
 16  2  2  0  0  0  0
 16 17  1  0  0  0  0
  1 18  1  0  0  0  0
 18 19  2  0  0  0  0
 19 20  1  0  0  0  0
 20 21  1  0  0  0  0
 21 22  1  0  0  0  0
 21 23  2  0  0  0  0
 23 24  1  0  0  0  0
 23 25  1  0  0  0  0
 25 26  1  0  0  0  0
 25 27  2  0  0  0  0
 27 19  1  0  0  0  0
 27 28  1  0  0  0  0
 20 29  2  0  0  0  0
 29 30  1  0  0  0  0
 29 31  1  0  0  0  0
 31  1  2  0  0  0  0
 31 32  1  0  0  0  0
M  END
> <ChemID>
100238

> <source_casrn>
119-91-5

> <CAS>
119-91-5

> <SMILES>
c1cc([n]c2ccccc21)-c1ccc2ccccc2[n]1

> <NAME>
2,2'-BIQUINOLINE

> <preferred_name>
2,2'-Biquinoline

> <iupac>
2-quinolin-2-ylquinoline

> <MPID>
99515

> <dsstox_substance_id>
DTXSID8059500

> <Canonical_QSARr>
c1cc([n]c2ccccc21)-c1ccc2ccccc2[n]1

> <InChI_Code_QSARr>
InChI=1S/C18H12N2/c1-3-7-15-13(5-1)9-11-17(19-15)18-12-10-14-6-2-4-8-16(14)20-18/h1-12H

> <InChI Key_QSARr>
WPTCSQBWLUUYDV-UHFFFAOYSA-N

> <LogKOC>
4.02

$$$$
100242
  -INDIGO-08031722282D

 12 12  0  0  0  0  0  0  0  0999 V2000
    0.8000    1.3856    0.0000 Cl  0  0  0  0  0  0  0  0  0  0  0  0
   -0.0000   -0.0000    0.0000 C   0  0  0  0  0  0  0  0  0  0  0  0
    0.8000   -1.3857    0.0000 C   0  0  0  0  0  0  0  0  0  0  0  0
    2.4000   -1.3857    0.0000 Cl  0  0  0  0  0  0  0  0  0  0  0  0
   -0.0000   -2.7713    0.0000 C   0  0  0  0  0  0  0  0  0  0  0  0
    0.8000   -4.1569    0.0000 H   0  0  0  0  0  0  0  0  0  0  0  0
   -1.6000   -2.7713    0.0000 C   0  0  0  0  0  0  0  0  0  0  0  0
   -2.4000   -4.1569    0.0000 Cl  0  0  0  0  0  0  0  0  0  0  0  0
   -2.4000   -1.3856    0.0000 C   0  0  0  0  0  0  0  0  0  0  0  0
   -4.0000   -1.3856    0.0000 H   0  0  0  0  0  0  0  0  0  0  0  0
   -1.6000   -0.0000    0.0000 C   0  0  0  0  0  0  0  0  0  0  0  0
   -2.4000    1.3856    0.0000 H   0  0  0  0  0  0  0  0  0  0  0  0
  1  2  1  0  0  0  0
  2  3  1  0  0  0  0
  3  4  1  0  0  0  0
  3  5  2  0  0  0  0
  5  6  1  0  0  0  0
  5  7  1  0  0  0  0
  7  8  1  0  0  0  0
  7  9  2  0  0  0  0
  9 10  1  0  0  0  0
  9 11  1  0  0  0  0
 11  2  2  0  0  0  0
 11 12  1  0  0  0  0
M  END
> <ChemID>
100242

> <source_casrn>
120-82-1

> <CAS>
120-82-1

> <SMILES>
Clc1cc(Cl)c(Cl)cc1

> <NAME>
1,2,4-TRICHLOROBENZENE

> <preferred_name>
1,2,4-Trichlorobenzene

> <iupac>
C6H3Cl3

> <MPID>
99519

> <dsstox_substance_id>
DTXSID0021965

> <Canonical_QSARr>
Clc1cc(Cl)c(Cl)cc1

> <InChI_Code_QSARr>
InChI=1S/C6H3Cl3/c7-4-1-2-5(8)6(9)3-4/h1-3H

> <InChI Key_QSARr>
PBKONEOXTCPAFI-UHFFFAOYSA-N

> <LogKOC>
3.1

$$$$
100246
  -INDIGO-08031722282D

 20 20  0  0  0  0  0  0  0  0999 V2000
    2.7713    0.0000    0.0000 N   0  0  0  0  0  0  0  0  0  0  0  0
    4.1569   -0.8000    0.0000 H   0  0  0  0  0  0  0  0  0  0  0  0
    2.7713    1.6000    0.0000 H   0  0  0  0  0  0  0  0  0  0  0  0
    1.3857   -0.8000    0.0000 C   0  0  0  0  0  0  0  0  0  0  0  0
    1.3857   -2.4000    0.0000 O   0  0  0  0  0  0  0  0  0  0  0  0
    0.0001    0.0000    0.0000 C   0  0  0  0  0  0  0  0  0  0  0  0
    0.0001    1.6000    0.0000 C   0  0  0  0  0  0  0  0  0  0  0  0
    1.3857    2.4000    0.0000 H   0  0  0  0  0  0  0  0  0  0  0  0
   -1.3857    2.4000    0.0000 C   0  0  0  0  0  0  0  0  0  0  0  0
   -1.3857    4.0000    0.0000 N   0  0  0  0  0  0  0  0  0  0  0  0
   -2.7713    4.8000    0.0000 O   0  0  0  0  0  0  0  0  0  0  0  0
    0.0001    4.8000    0.0000 O   0  0  0  0  0  0  0  0  0  0  0  0
   -2.7713    1.6000    0.0000 C   0  0  0  0  0  0  0  0  0  0  0  0
   -4.1569    2.4000    0.0000 H   0  0  0  0  0  0  0  0  0  0  0  0
   -2.7713    0.0000    0.0000 C   0  0  0  0  0  0  0  0  0  0  0  0
   -4.1569   -0.8000    0.0000 N   0  0  0  0  0  0  0  0  0  0  0  0
   -5.5426    0.0000    0.0000 O   0  0  0  0  0  0  0  0  0  0  0  0
   -4.1569   -2.4000    0.0000 O   0  0  0  0  0  0  0  0  0  0  0  0
   -1.3857   -0.8000    0.0000 C   0  0  0  0  0  0  0  0  0  0  0  0
   -1.3857   -2.4000    0.0000 H   0  0  0  0  0  0  0  0  0  0  0  0
  1  2  1  0  0  0  0
  1  3  1  0  0  0  0
  1  4  1  0  0  0  0
  4  5  2  0  0  0  0
  4  6  1  0  0  0  0
  6  7  1  0  0  0  0
  7  8  1  0  0  0  0
  7  9  2  0  0  0  0
  9 10  1  0  0  0  0
 10 11  1  0  0  0  0
 10 12  2  0  0  0  0
  9 13  1  0  0  0  0
 13 14  1  0  0  0  0
 13 15  2  0  0  0  0
 15 16  1  0  0  0  0
 16 17  1  0  0  0  0
 16 18  2  0  0  0  0
 15 19  1  0  0  0  0
 19  6  2  0  0  0  0
 19 20  1  0  0  0  0
M  CHG  4  10   1  11  -1  16   1  17  -1
M  END
> <ChemID>
100246

> <source_casrn>
121-81-3

> <CAS>
121-81-3

> <SMILES>
NC(=O)c1cc(cc(c1)[N+]([O-])=O)[N+]([O-])=O

> <NAME>
3,5-DINITROBENZAMIDE

> <preferred_name>
Nitromide

> <iupac>
3,5-dinitrobenzamide

> <MPID>
99523

> <dsstox_substance_id>
DTXSID0045836

> <Canonical_QSARr>
NC(=O)c1cc(cc(c1)[N+]([O-])=O)[N+]([O-])=O

> <InChI_Code_QSARr>
InChI=1S/C7H5N3O5/c8-7(11)4-1-5(9(12)13)3-6(2-4)10(14)15/h1-3H,(H2,8,11)

> <InChI Key_QSARr>
UUKWKUSGGZNXGA-UHFFFAOYSA-N

> <LogKOC>
2.31

$$$$
100250
  -INDIGO-08031722282D

 24 25  0  0  0  0  0  0  0  0999 V2000
   -0.5473   -1.5035    0.0000 C   0  0  0  0  0  0  0  0  0  0  0  0
    0.4812   -2.7292    0.0000 H   0  0  0  0  0  0  0  0  0  0  0  0
   -2.1229   -1.7813    0.0000 C   0  0  0  0  0  0  0  0  0  0  0  0
   -2.6702   -3.2849    0.0000 H   0  0  0  0  0  0  0  0  0  0  0  0
   -3.1513   -0.5556    0.0000 C   0  0  0  0  0  0  0  0  0  0  0  0
   -4.7271   -0.8335    0.0000 H   0  0  0  0  0  0  0  0  0  0  0  0
   -2.6042    0.9479    0.0000 C   0  0  0  0  0  0  0  0  0  0  0  0
   -3.6326    2.1735    0.0000 H   0  0  0  0  0  0  0  0  0  0  0  0
   -1.0284    1.2257    0.0000 C   0  0  0  0  0  0  0  0  0  0  0  0
   -0.4813    2.7292    0.0000 H   0  0  0  0  0  0  0  0  0  0  0  0
    0.0000    0.0000    0.0000 C   0  0  0  0  0  0  0  0  0  0  0  0
    1.5756    0.2779    0.0000 N   0  0  0  0  0  0  0  0  0  0  0  0
    1.8536    1.8535    0.0000 H   0  0  0  0  0  0  0  0  0  0  0  0
    2.9614   -0.5221    0.0000 C   0  0  0  0  0  0  0  0  0  0  0  0
    2.9614   -2.1222    0.0000 C   0  0  0  0  0  0  0  0  0  0  0  0
    1.5756   -2.9222    0.0000 H   0  0  0  0  0  0  0  0  0  0  0  0
    4.3470   -2.9222    0.0000 C   0  0  0  0  0  0  0  0  0  0  0  0
    4.3470   -4.5222    0.0000 H   0  0  0  0  0  0  0  0  0  0  0  0
    5.7326   -2.1222    0.0000 C   0  0  0  0  0  0  0  0  0  0  0  0
    7.1183   -2.9222    0.0000 H   0  0  0  0  0  0  0  0  0  0  0  0
    5.7326   -0.5221    0.0000 C   0  0  0  0  0  0  0  0  0  0  0  0
    7.1183    0.2779    0.0000 H   0  0  0  0  0  0  0  0  0  0  0  0
    4.3470    0.2779    0.0000 C   0  0  0  0  0  0  0  0  0  0  0  0
    4.3470    1.8779    0.0000 H   0  0  0  0  0  0  0  0  0  0  0  0
  1  2  1  0  0  0  0
  1  3  1  0  0  0  0
  3  4  1  0  0  0  0
  3  5  2  0  0  0  0
  5  6  1  0  0  0  0
  5  7  1  0  0  0  0
  7  8  1  0  0  0  0
  7  9  2  0  0  0  0
  9 10  1  0  0  0  0
  9 11  1  0  0  0  0
 11  1  2  0  0  0  0
 11 12  1  0  0  0  0
 12 13  1  0  0  0  0
 12 14  1  0  0  0  0
 14 15  1  0  0  0  0
 15 16  1  0  0  0  0
 15 17  2  0  0  0  0
 17 18  1  0  0  0  0
 17 19  1  0  0  0  0
 19 20  1  0  0  0  0
 19 21  2  0  0  0  0
 21 22  1  0  0  0  0
 21 23  1  0  0  0  0
 23 14  2  0  0  0  0
 23 24  1  0  0  0  0
M  END
> <ChemID>
100250

> <source_casrn>
122-39-4

> <CAS>
122-39-4

> <SMILES>
c1ccccc1Nc1ccccc1

> <NAME>
DIPHENYLAMINE

> <preferred_name>
Diphenylamine

> <iupac>
N-phenylaniline

> <MPID>
99527

> <dsstox_substance_id>
DTXSID4021975

> <Canonical_QSARr>
c1ccccc1Nc1ccccc1

> <InChI_Code_QSARr>
InChI=1S/C12H11N/c1-3-7-11(8-4-1)13-12-9-5-2-6-10-12/h1-10,13H

> <InChI Key_QSARr>
DMBHHRLKUKUOEG-UHFFFAOYSA-N

> <LogKOC>
2.78

$$$$
100254
  -INDIGO-08031722282D

 26 25  0  0  0  0  0  0  0  0999 V2000
    2.7714    0.0000    0.0000 C   0  0  0  0  0  0  0  0  0  0  0  0
    4.1569   -0.8000    0.0000 H   0  0  0  0  0  0  0  0  0  0  0  0
    4.1569    0.8000    0.0000 H   0  0  0  0  0  0  0  0  0  0  0  0
    2.7714   -1.6000    0.0000 H   0  0  0  0  0  0  0  0  0  0  0  0
    1.3856    0.8000    0.0000 C   0  0  0  0  0  0  0  0  0  0  0  0
    1.9980    2.2782    0.0000 H   0  0  0  0  0  0  0  0  0  0  0  0
    0.7733    2.2782    0.0000 H   0  0  0  0  0  0  0  0  0  0  0  0
    0.0001    0.0000    0.0000 C   0  0  0  0  0  0  0  0  0  0  0  0
   -0.6122   -1.4782    0.0000 H   0  0  0  0  0  0  0  0  0  0  0  0
    0.6122   -1.4782    0.0000 H   0  0  0  0  0  0  0  0  0  0  0  0
   -1.3856    0.8000    0.0000 C   0  0  0  0  0  0  0  0  0  0  0  0
   -0.7733    2.2782    0.0000 H   0  0  0  0  0  0  0  0  0  0  0  0
   -1.9980    2.2782    0.0000 H   0  0  0  0  0  0  0  0  0  0  0  0
   -2.7712    0.0000    0.0000 C   0  0  0  0  0  0  0  0  0  0  0  0
   -3.3835   -1.4782    0.0000 H   0  0  0  0  0  0  0  0  0  0  0  0
   -2.1591   -1.4782    0.0000 H   0  0  0  0  0  0  0  0  0  0  0  0
   -4.1569    0.8000    0.0000 C   0  0  0  0  0  0  0  0  0  0  0  0
   -4.1569    2.4000    0.0000 O   0  0  0  0  0  0  0  0  0  0  0  0
   -5.5425    0.0000    0.0000 O   0  0  0  0  0  0  0  0  0  0  0  0
   -6.9282    0.8000    0.0000 C   0  0  0  0  0  0  0  0  0  0  0  0
   -6.3159    2.2782    0.0000 H   0  0  0  0  0  0  0  0  0  0  0  0
   -7.5405    2.2782    0.0000 H   0  0  0  0  0  0  0  0  0  0  0  0
   -8.3137    0.0000    0.0000 C   0  0  0  0  0  0  0  0  0  0  0  0
   -9.6995   -0.8000    0.0000 H   0  0  0  0  0  0  0  0  0  0  0  0
   -9.6995    0.8000    0.0000 H   0  0  0  0  0  0  0  0  0  0  0  0
   -8.3137   -1.6000    0.0000 H   0  0  0  0  0  0  0  0  0  0  0  0
  1  2  1  0  0  0  0
  1  3  1  0  0  0  0
  1  4  1  0  0  0  0
  1  5  1  0  0  0  0
  5  6  1  0  0  0  0
  5  7  1  0  0  0  0
  5  8  1  0  0  0  0
  8  9  1  0  0  0  0
  8 10  1  0  0  0  0
  8 11  1  0  0  0  0
 11 12  1  0  0  0  0
 11 13  1  0  0  0  0
 11 14  1  0  0  0  0
 14 15  1  0  0  0  0
 14 16  1  0  0  0  0
 14 17  1  0  0  0  0
 17 18  2  0  0  0  0
 17 19  1  0  0  0  0
 19 20  1  0  0  0  0
 20 21  1  0  0  0  0
 20 22  1  0  0  0  0
 20 23  1  0  0  0  0
 23 24  1  0  0  0  0
 23 25  1  0  0  0  0
 23 26  1  0  0  0  0
M  END
> <ChemID>
100254

> <source_casrn>
123-66-0

> <CAS>
123-66-0

> <SMILES>
CCCCCC(=O)OCC

> <NAME>
ETHYL HEXANOATE

> <preferred_name>
Ethyl hexanoate

> <iupac>
ethyl hexanoate

> <MPID>
99531

> <dsstox_substance_id>
DTXSID3021980

> <Canonical_QSARr>
CCCCCC(=O)OCC

> <InChI_Code_QSARr>
InChI=1S/C8H16O2/c1-3-5-6-7-8(9)10-4-2/h3-7H2,1-2H3

> <InChI Key_QSARr>
SHZIWNPUGXLXDT-UHFFFAOYSA-N

> <LogKOC>
2.06

$$$$
100258
  -INDIGO-08031722282D

  6  5  0  0  0  0  0  0  0  0999 V2000
   -0.8000   -1.3856    0.0000 Cl  0  0  0  0  0  0  0  0  0  0  0  0
    0.0000    0.0000    0.0000 C   0  0  0  0  0  0  0  0  0  0  0  0
    1.6000    0.0000    0.0000 C   0  0  0  0  0  0  0  0  0  0  0  0
    2.4000    1.3856    0.0000 Cl  0  0  0  0  0  0  0  0  0  0  0  0
    2.4000   -1.3856    0.0000 Cl  0  0  0  0  0  0  0  0  0  0  0  0
   -0.8000    1.3856    0.0000 Cl  0  0  0  0  0  0  0  0  0  0  0  0
  1  2  1  0  0  0  0
  2  3  2  0  0  0  0
  3  4  1  0  0  0  0
  3  5  1  0  0  0  0
  2  6  1  0  0  0  0
M  END
> <ChemID>
100258

> <source_casrn>
127-18-4

> <CAS>
127-18-4

> <SMILES>
ClC(Cl)=C(Cl)Cl

> <NAME>
TETRACHLOROETHENE

> <preferred_name>
Tetrachloroethylene

> <iupac>
tetrachloroethene

> <MPID>
99535

> <dsstox_substance_id>
DTXSID2021319

> <Canonical_QSARr>
ClC(Cl)=C(Cl)Cl

> <InChI_Code_QSARr>
InChI=1S/C2Cl4/c3-1(4)2(5)6

> <InChI Key_QSARr>
CYTYCFOTNPOANT-UHFFFAOYSA-N

> <LogKOC>
2.4

$$$$
100263
  -INDIGO-08031722282D

 21 23  0  0  0  0  0  0  0  0999 V2000
    3.9650    1.0530    0.0000 C   0  0  0  0  0  0  0  0  0  0  0  0
    4.7650    2.4386    0.0000 H   0  0  0  0  0  0  0  0  0  0  0  0
    4.7650   -0.3327    0.0000 C   0  0  0  0  0  0  0  0  0  0  0  0
    6.3650   -0.3327    0.0000 H   0  0  0  0  0  0  0  0  0  0  0  0
    3.9650   -1.7183    0.0000 C   0  0  0  0  0  0  0  0  0  0  0  0
    4.7650   -3.1039    0.0000 H   0  0  0  0  0  0  0  0  0  0  0  0
    2.3650   -1.7183    0.0000 C   0  0  0  0  0  0  0  0  0  0  0  0
    1.5650   -3.1039    0.0000 H   0  0  0  0  0  0  0  0  0  0  0  0
    1.5650   -0.3327    0.0000 C   0  0  0  0  0  0  0  0  0  0  0  0
    2.3650    1.0530    0.0000 C   0  0  0  0  0  0  0  0  0  0  0  0
    1.2944    2.2420    0.0000 O   0  0  0  0  0  0  0  0  0  0  0  0
   -0.1672    1.5912    0.0000 C   0  0  0  0  0  0  0  0  0  0  0  0
   -0.0000    0.0000    0.0000 C   0  0  0  0  0  0  0  0  0  0  0  0
   -1.2944   -0.9405    0.0000 C   0  0  0  0  0  0  0  0  0  0  0  0
   -1.1271   -2.5317    0.0000 H   0  0  0  0  0  0  0  0  0  0  0  0
   -2.7561   -0.2897    0.0000 C   0  0  0  0  0  0  0  0  0  0  0  0
   -4.0505   -1.2301    0.0000 H   0  0  0  0  0  0  0  0  0  0  0  0
   -2.9233    1.3015    0.0000 C   0  0  0  0  0  0  0  0  0  0  0  0
   -4.3850    1.9523    0.0000 H   0  0  0  0  0  0  0  0  0  0  0  0
   -1.6289    2.2420    0.0000 C   0  0  0  0  0  0  0  0  0  0  0  0
   -1.7962    3.8333    0.0000 H   0  0  0  0  0  0  0  0  0  0  0  0
  1  2  1  0  0  0  0
  1  3  1  0  0  0  0
  3  4  1  0  0  0  0
  3  5  2  0  0  0  0
  5  6  1  0  0  0  0
  5  7  1  0  0  0  0
  7  8  1  0  0  0  0
  7  9  2  0  0  0  0
  9 10  1  0  0  0  0
 10  1  2  0  0  0  0
 10 11  1  0  0  0  0
 11 12  1  0  0  0  0
 12 13  1  0  0  0  0
 13  9  1  0  0  0  0
 13 14  2  0  0  0  0
 14 15  1  0  0  0  0
 14 16  1  0  0  0  0
 16 17  1  0  0  0  0
 16 18  2  0  0  0  0
 18 19  1  0  0  0  0
 18 20  1  0  0  0  0
 20 12  2  0  0  0  0
 20 21  1  0  0  0  0
M  END
> <ChemID>
100263

> <source_casrn>
132-64-9

> <CAS>
132-64-9

> <SMILES>
c1cccc2oc3ccccc3c21

> <NAME>
DIBENZOFURAN

> <preferred_name>
Dibenzofuran

> <iupac>
dibenzo[b,d]furan

> <MPID>
99540

> <dsstox_substance_id>
DTXSID2021993

> <Canonical_QSARr>
c1cccc2oc3ccccc3c21

> <InChI_Code_QSARr>
InChI=1S/C12H8O/c1-3-7-11-9(5-1)10-6-2-4-8-12(10)13-11/h1-8H

> <InChI Key_QSARr>
TXCDCPKCNAJMEE-UHFFFAOYSA-N

> <LogKOC>
3.91

$$$$
100266
  -INDIGO-08031722282D

 35 37  0  0  0  0  0  0  0  0999 V2000
    8.3139   -3.2001    0.0000 O   0  0  0  0  0  0  0  0  0  0  0  0
    8.3139   -4.8000    0.0000 H   0  0  0  0  0  0  0  0  0  0  0  0
    6.9282   -2.4000    0.0000 C   0  0  0  0  0  0  0  0  0  0  0  0
    6.9282   -0.8000    0.0000 C   0  0  0  0  0  0  0  0  0  0  0  0
    5.5427   -0.0001    0.0000 C   0  0  0  0  0  0  0  0  0  0  0  0
    4.1569   -0.8000    0.0000 C   0  0  0  0  0  0  0  0  0  0  0  0
    2.7714   -0.0001    0.0000 N   0  0  0  0  0  0  0  0  0  0  0  0
    2.7714    1.6000    0.0000 H   0  0  0  0  0  0  0  0  0  0  0  0
    1.3856   -0.8000    0.0000 C   0  0  0  0  0  0  0  0  0  0  0  0
   -0.0001   -0.0001    0.0000 C   0  0  0  0  0  0  0  0  0  0  0  0
   -1.3856   -0.8000    0.0000 C   0  0  0  0  0  0  0  0  0  0  0  0
   -2.7714   -0.0001    0.0000 C   0  0  0  0  0  0  0  0  0  0  0  0
   -4.1569   -0.8000    0.0000 H   0  0  0  0  0  0  0  0  0  0  0  0
   -2.7712    1.6000    0.0000 C   0  0  0  0  0  0  0  0  0  0  0  0
   -4.1569    2.4001    0.0000 H   0  0  0  0  0  0  0  0  0  0  0  0
   -1.3856    2.4001    0.0000 C   0  0  0  0  0  0  0  0  0  0  0  0
   -1.3856    4.0000    0.0000 H   0  0  0  0  0  0  0  0  0  0  0  0
   -0.0001    1.6000    0.0000 C   0  0  0  0  0  0  0  0  0  0  0  0
    1.3856    2.4001    0.0000 H   0  0  0  0  0  0  0  0  0  0  0  0
   -1.3856   -2.4000    0.0000 C   0  0  0  0  0  0  0  0  0  0  0  0
   -2.7714   -3.2001    0.0000 H   0  0  0  0  0  0  0  0  0  0  0  0
   -0.0001   -3.2001    0.0000 C   0  0  0  0  0  0  0  0  0  0  0  0
   -0.0001   -4.8000    0.0000 H   0  0  0  0  0  0  0  0  0  0  0  0
    1.3856   -2.4000    0.0000 C   0  0  0  0  0  0  0  0  0  0  0  0
    2.7714   -3.2001    0.0000 H   0  0  0  0  0  0  0  0  0  0  0  0
    4.1569   -2.4000    0.0000 O   0  0  0  0  0  0  0  0  0  0  0  0
    5.5427    1.6000    0.0000 C   0  0  0  0  0  0  0  0  0  0  0  0
    4.1569    2.4001    0.0000 H   0  0  0  0  0  0  0  0  0  0  0  0
    6.9282    2.4001    0.0000 C   0  0  0  0  0  0  0  0  0  0  0  0
    6.9282    4.0000    0.0000 H   0  0  0  0  0  0  0  0  0  0  0  0
    8.3139    1.6000    0.0000 C   0  0  0  0  0  0  0  0  0  0  0  0
    9.6995    2.4001    0.0000 H   0  0  0  0  0  0  0  0  0  0  0  0
    8.3139   -0.0001    0.0000 C   0  0  0  0  0  0  0  0  0  0  0  0
    9.6995   -0.8000    0.0000 H   0  0  0  0  0  0  0  0  0  0  0  0
    5.5427   -3.2001    0.0000 O   0  0  0  0  0  0  0  0  0  0  0  0
  1  2  1  0  0  0  0
  1  3  1  0  0  0  0
  3  4  1  0  0  0  0
  4  5  1  0  0  0  0
  5  6  1  0  0  0  0
  6  7  1  0  0  0  0
  7  8  1  0  0  0  0
  7  9  1  0  0  0  0
  9 10  1  0  0  0  0
 10 11  1  0  0  0  0
 11 12  2  0  0  0  0
 12 13  1  0  0  0  0
 12 14  1  0  0  0  0
 14 15  1  0  0  0  0
 14 16  2  0  0  0  0
 16 17  1  0  0  0  0
 16 18  1  0  0  0  0
 18 10  2  0  0  0  0
 18 19  1  0  0  0  0
 11 20  1  0  0  0  0
 20 21  1  0  0  0  0
 20 22  2  0  0  0  0
 22 23  1  0  0  0  0
 22 24  1  0  0  0  0
 24  9  2  0  0  0  0
 24 25  1  0  0  0  0
  6 26  2  0  0  0  0
  5 27  2  0  0  0  0
 27 28  1  0  0  0  0
 27 29  1  0  0  0  0
 29 30  1  0  0  0  0
 29 31  2  0  0  0  0
 31 32  1  0  0  0  0
 31 33  1  0  0  0  0
 33  4  2  0  0  0  0
 33 34  1  0  0  0  0
  3 35  2  0  0  0  0
M  END
> <ChemID>
100266

> <source_casrn>
132-67-2

> <CAS>
132-67-2

> <SMILES>
[Na]OC(=O)c1ccccc1C(=O)Nc2cccc3ccccc23

> <NAME>
N-1-NAPHTHYLPHTHALMIC ACID

> <preferred_name>
Naptalam-sodium

> <iupac>
sodium 2-(naphthalen-1-ylcarbamoyl)benzoate

> <MPID>
99542

> <dsstox_substance_id>
DTXSID7034759

> <Canonical_QSARr>
OC(=O)c1ccccc1C(=O)Nc1cccc2ccccc21

> <InChI_Code_QSARr>
InChI=1S/C18H13NO3/c20-17(14-9-3-4-10-15(14)18(21)22)19-16-11-5-7-12-6-1-2-8-13(12)16/h1-11H,(H,19,20)(H,21,22)

> <InChI Key_QSARr>
JXTHEWSKYLZVJC-UHFFFAOYSA-N

> <LogKOC>
3.34

$$$$
100269
  -INDIGO-08031722282D

 17 17  0  0  0  0  0  0  0  0999 V2000
    1.3857    2.4000    0.0000 Cl  0  0  0  0  0  0  0  0  0  0  0  0
    1.3857    0.8000    0.0000 C   0  0  0  0  0  0  0  0  0  0  0  0
    2.7713   -0.0000    0.0000 C   0  0  0  0  0  0  0  0  0  0  0  0
    4.1569    0.8000    0.0000 N   0  0  0  0  0  0  0  0  0  0  0  0
    5.5426   -0.0000    0.0000 H   0  0  0  0  0  0  0  0  0  0  0  0
    4.1569    2.4000    0.0000 H   0  0  0  0  0  0  0  0  0  0  0  0
    2.7713   -1.6000    0.0000 C   0  0  0  0  0  0  0  0  0  0  0  0
    4.1569   -2.4000    0.0000 H   0  0  0  0  0  0  0  0  0  0  0  0
    1.3857   -2.4000    0.0000 C   0  0  0  0  0  0  0  0  0  0  0  0
    1.3857   -4.0000    0.0000 Cl  0  0  0  0  0  0  0  0  0  0  0  0
   -0.0001   -1.6000    0.0000 C   0  0  0  0  0  0  0  0  0  0  0  0
   -1.3857   -2.4000    0.0000 H   0  0  0  0  0  0  0  0  0  0  0  0
   -0.0001   -0.0000    0.0000 C   0  0  0  0  0  0  0  0  0  0  0  0
   -1.3857    0.8000    0.0000 C   0  0  0  0  0  0  0  0  0  0  0  0
   -1.3857    2.4000    0.0000 O   0  0  0  0  0  0  0  0  0  0  0  0
   -2.7713   -0.0000    0.0000 O   0  0  0  0  0  0  0  0  0  0  0  0
   -4.1569    0.8000    0.0000 H   0  0  0  0  0  0  0  0  0  0  0  0
  1  2  1  0  0  0  0
  2  3  1  0  0  0  0
  3  4  1  0  0  0  0
  4  5  1  0  0  0  0
  4  6  1  0  0  0  0
  3  7  2  0  0  0  0
  7  8  1  0  0  0  0
  7  9  1  0  0  0  0
  9 10  1  0  0  0  0
  9 11  2  0  0  0  0
 11 12  1  0  0  0  0
 11 13  1  0  0  0  0
 13  2  2  0  0  0  0
 13 14  1  0  0  0  0
 14 15  2  0  0  0  0
 14 16  1  0  0  0  0
 16 17  1  0  0  0  0
M  END
> <ChemID>
100269

> <source_casrn>
133-90-4

> <CAS>
133-90-4

> <SMILES>
Nc1cc(Cl)cc(C(O)=O)c1Cl

> <NAME>
3-AMINO-2,5-DICHLOROBENZOIC ACID

> <preferred_name>
Chloramben

> <iupac>
3-amino-2,5-dichlorobenzoic acid

> <MPID>
99545

> <dsstox_substance_id>
DTXSID2020262

> <Canonical_QSARr>
Nc1cc(Cl)cc(C(O)=O)c1Cl

> <InChI_Code_QSARr>
InChI=1S/C7H5Cl2NO2/c8-3-1-4(7(11)12)6(9)5(10)2-3/h1-2H,10H2,(H,11,12)

> <InChI Key_QSARr>
HSSBORCLYSCBJR-UHFFFAOYSA-N

> <LogKOC>
1.48

$$$$
100274
  -INDIGO-08031722282D

 31 31  0  0  0  0  0  0  0  0999 V2000
    4.1568    4.0000    0.0000 Cl  0  0  0  0  0  0  0  0  0  0  0  0
    4.1570    2.4000    0.0000 C   0  0  0  0  0  0  0  0  0  0  0  0
    5.5426    1.6000    0.0000 N   0  0  0  0  0  0  0  0  0  0  0  0
    5.5426   -0.0001    0.0000 C   0  0  0  0  0  0  0  0  0  0  0  0
    6.9283   -0.8000    0.0000 N   0  0  0  0  0  0  0  0  0  0  0  0
    6.9283   -2.4000    0.0000 H   0  0  0  0  0  0  0  0  0  0  0  0
    8.3138    0.0001    0.0000 C   0  0  0  0  0  0  0  0  0  0  0  0
    7.5138    1.3856    0.0000 H   0  0  0  0  0  0  0  0  0  0  0  0
    9.6996    0.8000    0.0000 C   0  0  0  0  0  0  0  0  0  0  0  0
   11.0851    1.6000    0.0000 H   0  0  0  0  0  0  0  0  0  0  0  0
   11.0851    0.0001    0.0000 H   0  0  0  0  0  0  0  0  0  0  0  0
    9.6996    2.4000    0.0000 H   0  0  0  0  0  0  0  0  0  0  0  0
    9.1139   -1.3856    0.0000 C   0  0  0  0  0  0  0  0  0  0  0  0
    9.9138   -2.7713    0.0000 H   0  0  0  0  0  0  0  0  0  0  0  0
   10.7138   -1.3856    0.0000 H   0  0  0  0  0  0  0  0  0  0  0  0
    8.3138   -2.7713    0.0000 H   0  0  0  0  0  0  0  0  0  0  0  0
    4.1570   -0.8000    0.0000 N   0  0  0  0  0  0  0  0  0  0  0  0
    2.7713    0.0001    0.0000 C   0  0  0  0  0  0  0  0  0  0  0  0
    1.3857   -0.8000    0.0000 N   0  0  0  0  0  0  0  0  0  0  0  0
    1.3857   -2.4000    0.0000 H   0  0  0  0  0  0  0  0  0  0  0  0
    0.0000    0.0001    0.0000 C   0  0  0  0  0  0  0  0  0  0  0  0
    0.8001    1.3856    0.0000 H   0  0  0  0  0  0  0  0  0  0  0  0
   -1.3855    0.8000    0.0000 C   0  0  0  0  0  0  0  0  0  0  0  0
   -2.7713    1.6000    0.0000 H   0  0  0  0  0  0  0  0  0  0  0  0
   -2.7713    0.0001    0.0000 H   0  0  0  0  0  0  0  0  0  0  0  0
   -1.3855    2.4000    0.0000 H   0  0  0  0  0  0  0  0  0  0  0  0
   -0.8001   -1.3856    0.0000 C   0  0  0  0  0  0  0  0  0  0  0  0
   -1.5999   -2.7713    0.0000 H   0  0  0  0  0  0  0  0  0  0  0  0
   -2.4000   -1.3856    0.0000 H   0  0  0  0  0  0  0  0  0  0  0  0
    0.0000   -2.7713    0.0000 H   0  0  0  0  0  0  0  0  0  0  0  0
    2.7713    1.6000    0.0000 N   0  0  0  0  0  0  0  0  0  0  0  0
  1  2  1  0  0  0  0
  2  3  1  0  0  0  0
  3  4  2  0  0  0  0
  4  5  1  0  0  0  0
  5  6  1  0  0  0  0
  5  7  1  0  0  0  0
  7  8  1  0  0  0  0
  7  9  1  0  0  0  0
  9 10  1  0  0  0  0
  9 11  1  0  0  0  0
  9 12  1  0  0  0  0
  7 13  1  0  0  0  0
 13 14  1  0  0  0  0
 13 15  1  0  0  0  0
 13 16  1  0  0  0  0
  4 17  1  0  0  0  0
 17 18  2  0  0  0  0
 18 19  1  0  0  0  0
 19 20  1  0  0  0  0
 19 21  1  0  0  0  0
 21 22  1  0  0  0  0
 21 23  1  0  0  0  0
 23 24  1  0  0  0  0
 23 25  1  0  0  0  0
 23 26  1  0  0  0  0
 21 27  1  0  0  0  0
 27 28  1  0  0  0  0
 27 29  1  0  0  0  0
 27 30  1  0  0  0  0
 18 31  1  0  0  0  0
 31  2  2  0  0  0  0
M  END
> <ChemID>
100274

> <source_casrn>
139-40-2

> <CAS>
139-40-2

> <SMILES>
CC(C)Nc1[n]c(Cl)[n]c(NC(C)C)[n]1

> <NAME>
PROPAZINE

> <preferred_name>
Propazine

> <iupac>
6-chloro-N,N'-di(propan-2-yl)-1,3,5-triazine-2,4-diamine

> <MPID>
99549

> <dsstox_substance_id>
DTXSID3021196

> <Canonical_QSARr>
CC(C)Nc1[n]c(Cl)[n]c(NC(C)C)[n]1

> <InChI_Code_QSARr>
InChI=1S/C9H16ClN5/c1-5(2)11-8-13-7(10)14-9(15-8)12-6(3)4/h5-6H,1-4H3,(H2,11,12,13,14,15)

> <InChI Key_QSARr>
WJNRPILHGGKWCK-UHFFFAOYSA-N

> <LogKOC>
2.4

$$$$
100279
  -INDIGO-08031722282D

 30 29  0  0  0  0  0  0  0  0999 V2000
    5.5425   -0.0000    0.0000 C   0  0  0  0  0  0  0  0  0  0  0  0
    6.9282   -0.8000    0.0000 H   0  0  0  0  0  0  0  0  0  0  0  0
    6.9282    0.8000    0.0000 H   0  0  0  0  0  0  0  0  0  0  0  0
    5.5425   -1.6000    0.0000 H   0  0  0  0  0  0  0  0  0  0  0  0
    4.1570    0.8000    0.0000 C   0  0  0  0  0  0  0  0  0  0  0  0
    4.7692    2.2782    0.0000 H   0  0  0  0  0  0  0  0  0  0  0  0
    3.5446    2.2782    0.0000 H   0  0  0  0  0  0  0  0  0  0  0  0
    2.7713   -0.0000    0.0000 C   0  0  0  0  0  0  0  0  0  0  0  0
    2.1589   -1.4782    0.0000 H   0  0  0  0  0  0  0  0  0  0  0  0
    3.3835   -1.4782    0.0000 H   0  0  0  0  0  0  0  0  0  0  0  0
    1.3856    0.8000    0.0000 C   0  0  0  0  0  0  0  0  0  0  0  0
    1.9980    2.2782    0.0000 H   0  0  0  0  0  0  0  0  0  0  0  0
    0.7732    2.2782    0.0000 H   0  0  0  0  0  0  0  0  0  0  0  0
   -0.0001   -0.0000    0.0000 C   0  0  0  0  0  0  0  0  0  0  0  0
   -0.6122   -1.4782    0.0000 H   0  0  0  0  0  0  0  0  0  0  0  0
    0.6123   -1.4782    0.0000 H   0  0  0  0  0  0  0  0  0  0  0  0
   -1.3856    0.8000    0.0000 C   0  0  0  0  0  0  0  0  0  0  0  0
   -0.7734    2.2782    0.0000 H   0  0  0  0  0  0  0  0  0  0  0  0
   -1.9979    2.2782    0.0000 H   0  0  0  0  0  0  0  0  0  0  0  0
   -2.7713   -0.0000    0.0000 C   0  0  0  0  0  0  0  0  0  0  0  0
   -3.3836   -1.4782    0.0000 H   0  0  0  0  0  0  0  0  0  0  0  0
   -2.1589   -1.4782    0.0000 H   0  0  0  0  0  0  0  0  0  0  0  0
   -4.1570    0.8000    0.0000 C   0  0  0  0  0  0  0  0  0  0  0  0
   -3.5446    2.2782    0.0000 H   0  0  0  0  0  0  0  0  0  0  0  0
   -4.7691    2.2782    0.0000 H   0  0  0  0  0  0  0  0  0  0  0  0
   -5.5427   -0.0000    0.0000 C   0  0  0  0  0  0  0  0  0  0  0  0
   -6.1548   -1.4782    0.0000 H   0  0  0  0  0  0  0  0  0  0  0  0
   -4.9303   -1.4782    0.0000 H   0  0  0  0  0  0  0  0  0  0  0  0
   -6.9281    0.8000    0.0000 O   0  0  0  0  0  0  0  0  0  0  0  0
   -8.3138   -0.0000    0.0000 H   0  0  0  0  0  0  0  0  0  0  0  0
  1  2  1  0  0  0  0
  1  3  1  0  0  0  0
  1  4  1  0  0  0  0
  1  5  1  0  0  0  0
  5  6  1  0  0  0  0
  5  7  1  0  0  0  0
  5  8  1  0  0  0  0
  8  9  1  0  0  0  0
  8 10  1  0  0  0  0
  8 11  1  0  0  0  0
 11 12  1  0  0  0  0
 11 13  1  0  0  0  0
 11 14  1  0  0  0  0
 14 15  1  0  0  0  0
 14 16  1  0  0  0  0
 14 17  1  0  0  0  0
 17 18  1  0  0  0  0
 17 19  1  0  0  0  0
 17 20  1  0  0  0  0
 20 21  1  0  0  0  0
 20 22  1  0  0  0  0
 20 23  1  0  0  0  0
 23 24  1  0  0  0  0
 23 25  1  0  0  0  0
 23 26  1  0  0  0  0
 26 27  1  0  0  0  0
 26 28  1  0  0  0  0
 26 29  1  0  0  0  0
 29 30  1  0  0  0  0
M  END
> <ChemID>
100279

> <source_casrn>
143-08-8

> <CAS>
143-08-8

> <SMILES>
CCCCCCCCCO

> <NAME>
1-NONANOL

> <preferred_name>
1-Nonanol

> <iupac>
nonan-1-ol

> <MPID>
99554

> <dsstox_substance_id>
DTXSID6022008

> <Canonical_QSARr>
CCCCCCCCCO

> <InChI_Code_QSARr>
InChI=1S/C9H20O/c1-2-3-4-5-6-7-8-9-10/h10H,2-9H2,1H3

> <InChI Key_QSARr>
ZWRUINPWMLAQRD-UHFFFAOYSA-N

> <LogKOC>
1.89

$$$$
100284
  -INDIGO-08031722282D

 15 16  0  0  0  0  0  0  0  0999 V2000
    4.0621   -0.8000    0.0000 S   0  0  0  0  0  0  0  0  0  0  0  0
    4.8621    0.5856    0.0000 H   0  0  0  0  0  0  0  0  0  0  0  0
    2.4622   -0.8000    0.0000 C   0  0  0  0  0  0  0  0  0  0  0  0
    1.5216   -2.0944    0.0000 N   0  0  0  0  0  0  0  0  0  0  0  0
   -0.0000   -1.6000    0.0000 C   0  0  0  0  0  0  0  0  0  0  0  0
   -0.0000   -0.0000    0.0000 C   0  0  0  0  0  0  0  0  0  0  0  0
   -1.3856    0.8000    0.0000 C   0  0  0  0  0  0  0  0  0  0  0  0
   -1.3856    2.4000    0.0000 H   0  0  0  0  0  0  0  0  0  0  0  0
   -2.7713   -0.0000    0.0000 C   0  0  0  0  0  0  0  0  0  0  0  0
   -4.1569    0.8000    0.0000 H   0  0  0  0  0  0  0  0  0  0  0  0
   -2.7713   -1.6000    0.0000 C   0  0  0  0  0  0  0  0  0  0  0  0
   -4.1569   -2.4000    0.0000 H   0  0  0  0  0  0  0  0  0  0  0  0
   -1.3856   -2.4000    0.0000 C   0  0  0  0  0  0  0  0  0  0  0  0
   -1.3856   -4.0000    0.0000 H   0  0  0  0  0  0  0  0  0  0  0  0
    1.5216    0.4944    0.0000 S   0  0  0  0  0  0  0  0  0  0  0  0
  1  2  1  0  0  0  0
  1  3  1  0  0  0  0
  3  4  2  0  0  0  0
  4  5  1  0  0  0  0
  5  6  1  0  0  0  0
  6  7  2  0  0  0  0
  7  8  1  0  0  0  0
  7  9  1  0  0  0  0
  9 10  1  0  0  0  0
  9 11  2  0  0  0  0
 11 12  1  0  0  0  0
 11 13  1  0  0  0  0
 13  5  2  0  0  0  0
 13 14  1  0  0  0  0
  6 15  1  0  0  0  0
 15  3  1  0  0  0  0
M  END
> <ChemID>
100284

> <source_casrn>
149-30-4

> <CAS>
149-30-4

> <SMILES>
Sc1[n]c2ccccc2[s]1

> <NAME>
2-MERCAPTOBENZOTHIAZOLE

> <preferred_name>
2-Mercaptobenzothiazole

> <iupac>
1,3-benzothiazole-2-thiol

> <MPID>
99559

> <dsstox_substance_id>
DTXSID1020807

> <Canonical_QSARr>
Sc1[n]c2ccccc2[s]1

> <InChI_Code_QSARr>
InChI=1S/C7H5NS2/c9-7-8-5-3-1-2-4-6(5)10-7/h1-4H,(H,8,9)

> <InChI Key_QSARr>
YXIWHUQXZSMYRE-UHFFFAOYSA-N

> <LogKOC>
2.25

$$$$
100288
  -INDIGO-08031722282D

  8  8  0  0  0  0  0  0  0  0999 V2000
    0.0000   -0.0000    0.0000 C   0  0  0  0  0  0  0  0  0  0  0  0
    1.5035   -0.5472    0.0000 H   0  0  0  0  0  0  0  0  0  0  0  0
    0.2778    1.5757    0.0000 H   0  0  0  0  0  0  0  0  0  0  0  0
   -0.8000   -1.3856    0.0000 C   0  0  0  0  0  0  0  0  0  0  0  0
    0.4257   -2.4141    0.0000 H   0  0  0  0  0  0  0  0  0  0  0  0
   -2.0257   -2.4141    0.0000 H   0  0  0  0  0  0  0  0  0  0  0  0
   -1.6000   -0.0000    0.0000 N   0  0  0  0  0  0  0  0  0  0  0  0
   -2.9856    0.8000    0.0000 H   0  0  0  0  0  0  0  0  0  0  0  0
  1  2  1  0  0  0  0
  1  3  1  0  0  0  0
  1  4  1  0  0  0  0
  4  5  1  0  0  0  0
  4  6  1  0  0  0  0
  4  7  1  0  0  0  0
  7  1  1  0  0  0  0
  7  8  1  0  0  0  0
M  END
> <ChemID>
100288

> <source_casrn>
151-56-4

> <CAS>
151-56-4

> <SMILES>
C1CN1

> <NAME>
AZIRIDINE

> <preferred_name>
Ethyleneimine

> <iupac>
aziridine

> <MPID>
99563

> <dsstox_substance_id>
DTXSID8020599

> <Canonical_QSARr>
C1CN1

> <InChI_Code_QSARr>
InChI=1S/C2H5N/c1-2-3-1/h3H,1-2H2

> <InChI Key_QSARr>
NOWKCMXCCJGMRR-UHFFFAOYSA-N

> <LogKOC>
0.78

$$$$
100292
  -INDIGO-08031722282D

 34 39  0  0  0  0  0  0  0  0999 V2000
   -0.0001    0.0000    0.0000 C   0  0  0  0  0  0  0  0  0  0  0  0
   -1.3857    0.8000    0.0000 C   0  0  0  0  0  0  0  0  0  0  0  0
   -1.3857    2.4000    0.0000 C   0  0  0  0  0  0  0  0  0  0  0  0
   -2.7712    3.2000    0.0000 C   0  0  0  0  0  0  0  0  0  0  0  0
   -2.7712    4.8000    0.0000 H   0  0  0  0  0  0  0  0  0  0  0  0
   -4.1568    2.4000    0.0000 C   0  0  0  0  0  0  0  0  0  0  0  0
   -5.5426    3.2000    0.0000 H   0  0  0  0  0  0  0  0  0  0  0  0
   -4.1568    0.8000    0.0000 C   0  0  0  0  0  0  0  0  0  0  0  0
   -2.7712    0.0000    0.0000 C   0  0  0  0  0  0  0  0  0  0  0  0
   -2.7712   -1.6000    0.0000 C   0  0  0  0  0  0  0  0  0  0  0  0
   -1.3857   -2.4000    0.0000 C   0  0  0  0  0  0  0  0  0  0  0  0
   -1.3857   -4.0000    0.0000 H   0  0  0  0  0  0  0  0  0  0  0  0
   -0.0001   -1.6000    0.0000 C   0  0  0  0  0  0  0  0  0  0  0  0
    1.5823   -1.8373    0.0000 C   0  0  0  0  0  0  0  0  0  0  0  0
    2.3823   -3.2229    0.0000 C   0  0  0  0  0  0  0  0  0  0  0  0
    1.5823   -4.6086    0.0000 H   0  0  0  0  0  0  0  0  0  0  0  0
    3.9822   -3.2229    0.0000 C   0  0  0  0  0  0  0  0  0  0  0  0
    4.7822   -4.6086    0.0000 H   0  0  0  0  0  0  0  0  0  0  0  0
    4.7822   -1.8373    0.0000 C   0  0  0  0  0  0  0  0  0  0  0  0
    6.3823   -1.8373    0.0000 H   0  0  0  0  0  0  0  0  0  0  0  0
    3.9822   -0.4516    0.0000 C   0  0  0  0  0  0  0  0  0  0  0  0
    4.7822    0.9339    0.0000 H   0  0  0  0  0  0  0  0  0  0  0  0
    2.3823   -0.4516    0.0000 C   0  0  0  0  0  0  0  0  0  0  0  0
    1.3857    0.8000    0.0000 C   0  0  0  0  0  0  0  0  0  0  0  0
    1.3857    2.4000    0.0000 C   0  0  0  0  0  0  0  0  0  0  0  0
    2.7713    3.2000    0.0000 H   0  0  0  0  0  0  0  0  0  0  0  0
   -0.0001    3.2000    0.0000 C   0  0  0  0  0  0  0  0  0  0  0  0
   -0.0001    4.8000    0.0000 H   0  0  0  0  0  0  0  0  0  0  0  0
   -4.1568   -2.4000    0.0000 C   0  0  0  0  0  0  0  0  0  0  0  0
   -4.1568   -4.0000    0.0000 H   0  0  0  0  0  0  0  0  0  0  0  0
   -5.5426   -1.6000    0.0000 C   0  0  0  0  0  0  0  0  0  0  0  0
   -6.9282   -2.4000    0.0000 H   0  0  0  0  0  0  0  0  0  0  0  0
   -5.5426    0.0000    0.0000 C   0  0  0  0  0  0  0  0  0  0  0  0
   -6.9282    0.8000    0.0000 H   0  0  0  0  0  0  0  0  0  0  0  0
  1  2  1  0  0  0  0
  2  3  1  0  0  0  0
  3  4  2  0  0  0  0
  4  5  1  0  0  0  0
  4  6  1  0  0  0  0
  6  7  1  0  0  0  0
  6  8  2  0  0  0  0
  8  9  1  0  0  0  0
  9  2  2  0  0  0  0
  9 10  1  0  0  0  0
 10 11  1  0  0  0  0
 11 12  1  0  0  0  0
 11 13  2  0  0  0  0
 13  1  1  0  0  0  0
 13 14  1  0  0  0  0
 14 15  1  0  0  0  0
 15 16  1  0  0  0  0
 15 17  2  0  0  0  0
 17 18  1  0  0  0  0
 17 19  1  0  0  0  0
 19 20  1  0  0  0  0
 19 21  2  0  0  0  0
 21 22  1  0  0  0  0
 21 23  1  0  0  0  0
 23 14  2  0  0  0  0
 23 24  1  0  0  0  0
 24  1  2  0  0  0  0
 24 25  1  0  0  0  0
 25 26  1  0  0  0  0
 25 27  2  0  0  0  0
 27  3  1  0  0  0  0
 27 28  1  0  0  0  0
 10 29  2  0  0  0  0
 29 30  1  0  0  0  0
 29 31  1  0  0  0  0
 31 32  1  0  0  0  0
 31 33  2  0  0  0  0
 33  8  1  0  0  0  0
 33 34  1  0  0  0  0
M  END
> <ChemID>
100292

> <source_casrn>
193-39-5

> <CAS>
193-39-5

> <SMILES>
c1c2c3c4c5c1cccc5ccc4ccc3-c1ccccc1-2

> <NAME>
INDENO(1,2,3-CD)PYRENE

> <preferred_name>
Indeno(1,2,3-cd)pyrene

> <iupac>
indeno[1,2,3-cd]pyrene

> <MPID>
99567

> <dsstox_substance_id>
DTXSID8024153

> <Canonical_QSARr>
c1c2c3c4c5c1cccc5ccc4ccc3-c1ccccc1-2

> <InChI_Code_QSARr>
InChI=1S/C22H12/c1-2-7-17-16(6-1)18-11-10-14-9-8-13-4-3-5-15-12-19(17)22(18)21(14)20(13)15/h1-12H

> <InChI Key_QSARr>
SXQBHARYMNFBPS-UHFFFAOYSA-N

> <LogKOC>
6.2

$$$$
100296
  -INDIGO-08031722282D

 20 22  0  0  0  0  0  0  0  0999 V2000
    0.8000    2.2890    0.0000 C   0  0  0  0  0  0  0  0  0  0  0  0
    1.7008    3.6113    0.0000 H   0  0  0  0  0  0  0  0  0  0  0  0
   -0.8000    2.2890    0.0000 C   0  0  0  0  0  0  0  0  0  0  0  0
   -1.7009    3.6113    0.0000 H   0  0  0  0  0  0  0  0  0  0  0  0
   -1.3856    0.8000    0.0000 C   0  0  0  0  0  0  0  0  0  0  0  0
    0.0001    0.0000    0.0000 C   0  0  0  0  0  0  0  0  0  0  0  0
    0.0001   -1.6000    0.0000 C   0  0  0  0  0  0  0  0  0  0  0  0
   -1.3856   -2.4000    0.0000 C   0  0  0  0  0  0  0  0  0  0  0  0
   -1.3856   -4.0000    0.0000 H   0  0  0  0  0  0  0  0  0  0  0  0
   -2.7713   -1.6000    0.0000 C   0  0  0  0  0  0  0  0  0  0  0  0
   -4.1569   -2.4000    0.0000 H   0  0  0  0  0  0  0  0  0  0  0  0
   -2.7712    0.0000    0.0000 C   0  0  0  0  0  0  0  0  0  0  0  0
   -4.1569    0.8000    0.0000 H   0  0  0  0  0  0  0  0  0  0  0  0
    1.3856   -2.4000    0.0000 C   0  0  0  0  0  0  0  0  0  0  0  0
    1.3856   -4.0000    0.0000 H   0  0  0  0  0  0  0  0  0  0  0  0
    2.7713   -1.6000    0.0000 C   0  0  0  0  0  0  0  0  0  0  0  0
    4.1569   -2.4000    0.0000 H   0  0  0  0  0  0  0  0  0  0  0  0
    2.7713    0.0000    0.0000 C   0  0  0  0  0  0  0  0  0  0  0  0
    4.1569    0.8000    0.0000 H   0  0  0  0  0  0  0  0  0  0  0  0
    1.3856    0.8000    0.0000 C   0  0  0  0  0  0  0  0  0  0  0  0
  1  2  1  0  0  0  0
  1  3  2  0  0  0  0
  3  4  1  0  0  0  0
  3  5  1  0  0  0  0
  5  6  1  0  0  0  0
  6  7  1  0  0  0  0
  7  8  1  0  0  0  0
  8  9  1  0  0  0  0
  8 10  2  0  0  0  0
 10 11  1  0  0  0  0
 10 12  1  0  0  0  0
 12  5  2  0  0  0  0
 12 13  1  0  0  0  0
  7 14  2  0  0  0  0
 14 15  1  0  0  0  0
 14 16  1  0  0  0  0
 16 17  1  0  0  0  0
 16 18  2  0  0  0  0
 18 19  1  0  0  0  0
 18 20  1  0  0  0  0
 20  1  1  0  0  0  0
 20  6  2  0  0  0  0
M  END
> <ChemID>
100296

> <source_casrn>
208-96-8

> <CAS>
208-96-8

> <SMILES>
c1ccc2C=Cc3cccc1c32

> <NAME>
ACENAPHTHYLENE

> <preferred_name>
Acenaphthylene

> <iupac>
acenaphthylene

> <MPID>
99571

> <dsstox_substance_id>
DTXSID3023845

> <Canonical_QSARr>
c1ccc2C=Cc3cccc1c32

> <InChI_Code_QSARr>
InChI=1S/C12H8/c1-3-9-4-2-6-11-8-7-10(5-1)12(9)11/h1-8H

> <InChI Key_QSARr>
HXGDTGSAIMULJN-UHFFFAOYSA-N

> <LogKOC>
3.75

$$$$
100300
  -INDIGO-08031722282D

 26 26  0  0  0  0  0  0  0  0999 V2000
    0.0000    1.6000    0.0000 S   0  0  0  0  0  0  0  0  0  0  0  0
    0.0000   -0.0000    0.0000 P   0  0  0  0  0  0  0  0  0  0  0  0
    1.3857    0.8000    0.0000 O   0  0  0  0  0  0  0  0  0  0  0  0
    2.7712   -0.0000    0.0000 C   0  0  0  0  0  0  0  0  0  0  0  0
    2.7712   -1.6000    0.0000 C   0  0  0  0  0  0  0  0  0  0  0  0
    1.3857   -2.4000    0.0000 H   0  0  0  0  0  0  0  0  0  0  0  0
    4.1569   -2.4000    0.0000 C   0  0  0  0  0  0  0  0  0  0  0  0
    4.1569   -4.0000    0.0000 H   0  0  0  0  0  0  0  0  0  0  0  0
    5.5426   -1.6000    0.0000 C   0  0  0  0  0  0  0  0  0  0  0  0
    6.9281   -2.4000    0.0000 N   0  0  0  0  0  0  0  0  0  0  0  0
    8.3138   -1.6000    0.0000 O   0  0  0  0  0  0  0  0  0  0  0  0
    6.9281   -4.0000    0.0000 O   0  0  0  0  0  0  0  0  0  0  0  0
    5.5426   -0.0000    0.0000 C   0  0  0  0  0  0  0  0  0  0  0  0
    6.9281    0.8000    0.0000 H   0  0  0  0  0  0  0  0  0  0  0  0
    4.1569    0.8000    0.0000 C   0  0  0  0  0  0  0  0  0  0  0  0
    4.1569    2.4000    0.0000 H   0  0  0  0  0  0  0  0  0  0  0  0
   -1.3857    0.8000    0.0000 O   0  0  0  0  0  0  0  0  0  0  0  0
   -2.7712   -0.0000    0.0000 C   0  0  0  0  0  0  0  0  0  0  0  0
   -4.1569    0.8000    0.0000 H   0  0  0  0  0  0  0  0  0  0  0  0
   -4.1569   -0.8000    0.0000 H   0  0  0  0  0  0  0  0  0  0  0  0
   -2.7712    1.6000    0.0000 H   0  0  0  0  0  0  0  0  0  0  0  0
   -1.3857   -0.8000    0.0000 O   0  0  0  0  0  0  0  0  0  0  0  0
   -1.3857   -2.4000    0.0000 C   0  0  0  0  0  0  0  0  0  0  0  0
   -1.3857   -4.0000    0.0000 H   0  0  0  0  0  0  0  0  0  0  0  0
   -2.7712   -3.2000    0.0000 H   0  0  0  0  0  0  0  0  0  0  0  0
    0.0000   -3.2000    0.0000 H   0  0  0  0  0  0  0  0  0  0  0  0
  1  2  2  0  0  0  0
  2  3  1  0  0  0  0
  3  4  1  0  0  0  0
  4  5  1  0  0  0  0
  5  6  1  0  0  0  0
  5  7  2  0  0  0  0
  7  8  1  0  0  0  0
  7  9  1  0  0  0  0
  9 10  1  0  0  0  0
 10 11  2  0  0  0  0
 10 12  1  0  0  0  0
  9 13  2  0  0  0  0
 13 14  1  0  0  0  0
 13 15  1  0  0  0  0
 15  4  2  0  0  0  0
 15 16  1  0  0  0  0
  2 17  1  0  0  0  0
 17 18  1  0  0  0  0
 18 19  1  0  0  0  0
 18 20  1  0  0  0  0
 18 21  1  0  0  0  0
  2 22  1  0  0  0  0
 22 23  1  0  0  0  0
 23 24  1  0  0  0  0
 23 25  1  0  0  0  0
 23 26  1  0  0  0  0
M  CHG  2  10   1  12  -1
M  END
> <ChemID>
100300

> <source_casrn>
298-00-0

> <CAS>
298-00-0

> <SMILES>
COP(=S)(OC)Oc1ccc(cc1)N(=O)=O

> <NAME>
PARATHION METHYL

> <preferred_name>
Methyl parathion

> <iupac>
O,O-dimethyl O-(4-nitrophenyl) phosphorothioate

> <MPID>
99575

> <dsstox_substance_id>
DTXSID1020855

> <Canonical_QSARr>
COP(=S)(Oc1ccc(cc1)[N+]([O-])=O)OC

> <InChI_Code_QSARr>
InChI=1S/C8H10NO5PS/c1-12-15(16,13-2)14-8-5-3-7(4-6-8)9(10)11/h3-6H,1-2H3

> <InChI Key_QSARr>
RLBIQVVOMOPOHC-UHFFFAOYSA-N

> <LogKOC>
3.0

$$$$
100304
  -INDIGO-08031722282D

 20 19  0  0  0  0  0  0  0  0999 V2000
   -2.4000   -1.3856    0.0000 C   0  0  0  0  0  0  0  0  0  0  0  0
   -2.1911   -2.9720    0.0000 H   0  0  0  0  0  0  0  0  0  0  0  0
   -1.6000    0.0000    0.0000 O   0  0  0  0  0  0  0  0  0  0  0  0
    0.0000    0.0000    0.0000 P   0  0  0  0  0  0  0  0  0  0  0  0
    0.8000   -1.3856    0.0000 O   0  0  0  0  0  0  0  0  0  0  0  0
    1.6000    0.0000    0.0000 O   0  0  0  0  0  0  0  0  0  0  0  0
    2.4001   -1.3856    0.0000 C   0  0  0  0  0  0  0  0  0  0  0  0
    3.2000   -2.7713    0.0000 H   0  0  0  0  0  0  0  0  0  0  0  0
    4.0000   -1.3856    0.0000 H   0  0  0  0  0  0  0  0  0  0  0  0
    1.6000   -2.7713    0.0000 H   0  0  0  0  0  0  0  0  0  0  0  0
    0.8000    1.3857    0.0000 O   0  0  0  0  0  0  0  0  0  0  0  0
    0.0000    2.7713    0.0000 C   0  0  0  0  0  0  0  0  0  0  0  0
   -0.7999    4.1569    0.0000 H   0  0  0  0  0  0  0  0  0  0  0  0
    0.8000    4.1569    0.0000 H   0  0  0  0  0  0  0  0  0  0  0  0
   -1.6000    2.7713    0.0000 H   0  0  0  0  0  0  0  0  0  0  0  0
   -4.0001   -1.3856    0.0000 C   0  0  0  0  0  0  0  0  0  0  0  0
   -5.6000   -1.3856    0.0000 Br  0  0  0  0  0  0  0  0  0  0  0  0
   -4.8000   -2.7713    0.0000 Cl  0  0  0  0  0  0  0  0  0  0  0  0
   -4.8000    0.0000    0.0000 Cl  0  0  0  0  0  0  0  0  0  0  0  0
   -1.1307   -2.3596    0.0000 Br  0  0  0  0  0  0  0  0  0  0  0  0
  1  2  1  0  0  0  0
  1  3  1  0  0  0  0
  3  4  1  0  0  0  0
  4  5  2  0  0  0  0
  4  6  1  0  0  0  0
  6  7  1  0  0  0  0
  7  8  1  0  0  0  0
  7  9  1  0  0  0  0
  7 10  1  0  0  0  0
  4 11  1  0  0  0  0
 11 12  1  0  0  0  0
 12 13  1  0  0  0  0
 12 14  1  0  0  0  0
 12 15  1  0  0  0  0
  1 16  1  0  0  0  0
 16 17  1  0  0  0  0
 16 18  1  0  0  0  0
 16 19  1  0  0  0  0
  1 20  1  0  0  0  0
M  END
> <ChemID>
100304

> <source_casrn>
300-76-5

> <CAS>
300-76-5

> <SMILES>
COP(=O)(OC(Br)C(Cl)(Cl)Br)OC

> <NAME>
NALED

> <preferred_name>
Naled

> <iupac>
1,2-dibromo-2,2-dichloroethyl dimethyl phosphate

> <MPID>
99579

> <dsstox_substance_id>
DTXSID1024209

> <Canonical_QSARr>
COP(=O)(OC(Br)C(Cl)(Cl)Br)OC

> <InChI_Code_QSARr>
InChI=1S/C4H7Br2Cl2O4P/c1-10-13(9,11-2)12-3(5)4(6,7)8/h3H,1-2H3

> <InChI Key_QSARr>
BUYMVQAILCEWRR-UHFFFAOYSA-N

> <LogKOC>
2.26

$$$$
100308
  -INDIGO-08031722282D

 24 24  0  0  0  0  0  0  0  0999 V2000
   -1.6000    0.0000    0.0000 N   0  0  0  0  0  0  0  0  0  0  0  0
   -2.4001    1.3856    0.0000 C   0  0  0  0  0  0  0  0  0  0  0  0
   -1.6000    2.7713    0.0000 O   0  0  0  0  0  0  0  0  0  0  0  0
   -4.0001    1.3856    0.0000 C   0  0  0  0  0  0  0  0  0  0  0  0
   -4.8000    2.7713    0.0000 Br  0  0  0  0  0  0  0  0  0  0  0  0
   -4.8000    0.0000    0.0000 C   0  0  0  0  0  0  0  0  0  0  0  0
   -6.4000    0.0000    0.0000 C   0  0  0  0  0  0  0  0  0  0  0  0
   -8.0000    0.0000    0.0000 H   0  0  0  0  0  0  0  0  0  0  0  0
   -7.2001   -1.3857    0.0000 H   0  0  0  0  0  0  0  0  0  0  0  0
   -7.2001    1.3856    0.0000 H   0  0  0  0  0  0  0  0  0  0  0  0
   -4.0001   -1.3857    0.0000 N   0  0  0  0  0  0  0  0  0  0  0  0
   -4.8000   -2.7713    0.0000 H   0  0  0  0  0  0  0  0  0  0  0  0
   -2.4001   -1.3857    0.0000 C   0  0  0  0  0  0  0  0  0  0  0  0
   -1.6000   -2.7713    0.0000 O   0  0  0  0  0  0  0  0  0  0  0  0
    0.0000    0.0000    0.0000 C   0  0  0  0  0  0  0  0  0  0  0  0
    0.0000   -1.6000    0.0000 H   0  0  0  0  0  0  0  0  0  0  0  0
    1.5757   -0.2778    0.0000 C   0  0  0  0  0  0  0  0  0  0  0  0
    3.1514   -0.5557    0.0000 H   0  0  0  0  0  0  0  0  0  0  0  0
    2.1229   -1.7813    0.0000 H   0  0  0  0  0  0  0  0  0  0  0  0
    2.6042    0.9478    0.0000 H   0  0  0  0  0  0  0  0  0  0  0  0
    0.0000    1.6000    0.0000 C   0  0  0  0  0  0  0  0  0  0  0  0
    0.0000    3.2000    0.0000 H   0  0  0  0  0  0  0  0  0  0  0  0
    1.3856    2.4000    0.0000 H   0  0  0  0  0  0  0  0  0  0  0  0
    1.3856    0.8000    0.0000 H   0  0  0  0  0  0  0  0  0  0  0  0
  1  2  1  0  0  0  0
  2  3  2  0  0  0  0
  2  4  1  0  0  0  0
  4  5  1  0  0  0  0
  4  6  2  0  0  0  0
  6  7  1  0  0  0  0
  7  8  1  0  0  0  0
  7  9  1  0  0  0  0
  7 10  1  0  0  0  0
  6 11  1  0  0  0  0
 11 12  1  0  0  0  0
 11 13  1  0  0  0  0
 13  1  1  0  0  0  0
 13 14  2  0  0  0  0
  1 15  1  0  0  0  0
 15 16  1  0  0  0  0
 15 17  1  0  0  0  0
 17 18  1  0  0  0  0
 17 19  1  0  0  0  0
 17 20  1  0  0  0  0
 15 21  1  0  0  0  0
 21 22  1  0  0  0  0
 21 23  1  0  0  0  0
 21 24  1  0  0  0  0
M  END
> <ChemID>
100308

> <source_casrn>
314-42-1

> <CAS>
314-42-1

> <SMILES>
CC1NC(=O)N(C(C)C)C(=O)C=1Br

> <NAME>
ISOCIL

> <preferred_name>
Isocil

> <iupac>
5-bromo-6-methyl-3-(propan-2-yl)pyrimidine-2,4(1H,3H)-dione

> <MPID>
99583

> <dsstox_substance_id>
DTXSID2042064

> <Canonical_QSARr>
CC1NC(=O)N(C(C)C)C(=O)C=1Br

> <InChI_Code_QSARr>
InChI=1S/C8H11BrN2O2/c1-4(2)11-7(12)6(9)5(3)10-8(11)13/h4H,1-3H3,(H,10,13)

> <InChI Key_QSARr>
PSYBGEADHLUXCS-UHFFFAOYSA-N

> <LogKOC>
2.11

$$$$
100313
  -INDIGO-08031722282D

 24 24  0  0  0  0  0  0  0  0999 V2000
    7.2000    4.1569    0.0000 Cl  0  0  0  0  0  0  0  0  0  0  0  0
    6.4000    2.7713    0.0000 C   0  0  0  0  0  0  0  0  0  0  0  0
    7.2000    1.3856    0.0000 C   0  0  0  0  0  0  0  0  0  0  0  0
    8.8000    1.3856    0.0000 Cl  0  0  0  0  0  0  0  0  0  0  0  0
    6.4000    0.0000    0.0000 C   0  0  0  0  0  0  0  0  0  0  0  0
    7.2000   -1.3856    0.0000 H   0  0  0  0  0  0  0  0  0  0  0  0
    4.8001    0.0000    0.0000 C   0  0  0  0  0  0  0  0  0  0  0  0
    4.0001   -1.3856    0.0000 H   0  0  0  0  0  0  0  0  0  0  0  0
    4.0001    1.3856    0.0000 C   0  0  0  0  0  0  0  0  0  0  0  0
    2.3999    1.3856    0.0000 N   0  0  0  0  0  0  0  0  0  0  0  0
    1.5999    2.7713    0.0000 H   0  0  0  0  0  0  0  0  0  0  0  0
    1.5999    0.0000    0.0000 C   0  0  0  0  0  0  0  0  0  0  0  0
    2.3999   -1.3856    0.0000 O   0  0  0  0  0  0  0  0  0  0  0  0
   -0.0000    0.0000    0.0000 N   0  0  0  0  0  0  0  0  0  0  0  0
   -0.8000   -1.3856    0.0000 C   0  0  0  0  0  0  0  0  0  0  0  0
   -1.6000   -2.7713    0.0000 H   0  0  0  0  0  0  0  0  0  0  0  0
   -2.4000   -1.3856    0.0000 H   0  0  0  0  0  0  0  0  0  0  0  0
   -0.0000   -2.7713    0.0000 H   0  0  0  0  0  0  0  0  0  0  0  0
   -0.8000    1.3856    0.0000 C   0  0  0  0  0  0  0  0  0  0  0  0
   -1.6000    2.7713    0.0000 H   0  0  0  0  0  0  0  0  0  0  0  0
   -2.4000    1.3856    0.0000 H   0  0  0  0  0  0  0  0  0  0  0  0
   -0.0000    2.7713    0.0000 H   0  0  0  0  0  0  0  0  0  0  0  0
    4.8001    2.7713    0.0000 C   0  0  0  0  0  0  0  0  0  0  0  0
    4.0001    4.1569    0.0000 H   0  0  0  0  0  0  0  0  0  0  0  0
  1  2  1  0  0  0  0
  2  3  1  0  0  0  0
  3  4  1  0  0  0  0
  3  5  2  0  0  0  0
  5  6  1  0  0  0  0
  5  7  1  0  0  0  0
  7  8  1  0  0  0  0
  7  9  2  0  0  0  0
  9 10  1  0  0  0  0
 10 11  1  0  0  0  0
 10 12  1  0  0  0  0
 12 13  2  0  0  0  0
 12 14  1  0  0  0  0
 14 15  1  0  0  0  0
 15 16  1  0  0  0  0
 15 17  1  0  0  0  0
 15 18  1  0  0  0  0
 14 19  1  0  0  0  0
 19 20  1  0  0  0  0
 19 21  1  0  0  0  0
 19 22  1  0  0  0  0
  9 23  1  0  0  0  0
 23  2  2  0  0  0  0
 23 24  1  0  0  0  0
M  END
> <ChemID>
100313

> <source_casrn>
330-54-1

> <CAS>
330-54-1

> <SMILES>
CN(C)C(=O)Nc1cc(Cl)c(Cl)cc1

> <NAME>
DIURON

> <preferred_name>
Diuron

> <iupac>
3-(3,4-dichlorophenyl)-1,1-dimethylurea

> <MPID>
99588

> <dsstox_substance_id>
DTXSID0020446

> <Canonical_QSARr>
CN(C)C(=O)Nc1cc(Cl)c(Cl)cc1

> <InChI_Code_QSARr>
InChI=1S/C9H10Cl2N2O/c1-13(2)9(14)12-6-3-4-7(10)8(11)5-6/h3-5H,1-2H3,(H,12,14)

> <InChI Key_QSARr>
XMTQQYYKAHVGBJ-UHFFFAOYSA-N

> <LogKOC>
2.4

$$$$
100317
  -INDIGO-08031722282D

 19 19  0  0  0  0  0  0  0  0999 V2000
   -3.2000    2.7713    0.0000 F   0  0  0  0  0  0  0  0  0  0  0  0
   -2.4001    1.3856    0.0000 C   0  0  0  0  0  0  0  0  0  0  0  0
   -0.8000    1.3856    0.0000 C   0  0  0  0  0  0  0  0  0  0  0  0
    0.0000    2.7713    0.0000 H   0  0  0  0  0  0  0  0  0  0  0  0
    0.0000    0.0000    0.0000 C   0  0  0  0  0  0  0  0  0  0  0  0
    1.6000    0.0000    0.0000 N   0  0  0  0  0  0  0  0  0  0  0  0
    2.3999    1.3856    0.0000 H   0  0  0  0  0  0  0  0  0  0  0  0
    2.3999   -1.3856    0.0000 C   0  0  0  0  0  0  0  0  0  0  0  0
    1.6000   -2.7713    0.0000 O   0  0  0  0  0  0  0  0  0  0  0  0
    4.0000   -1.3856    0.0000 C   0  0  0  0  0  0  0  0  0  0  0  0
    5.6000   -1.3856    0.0000 H   0  0  0  0  0  0  0  0  0  0  0  0
    4.8000   -2.7713    0.0000 H   0  0  0  0  0  0  0  0  0  0  0  0
    4.8000    0.0000    0.0000 H   0  0  0  0  0  0  0  0  0  0  0  0
   -0.8000   -1.3856    0.0000 C   0  0  0  0  0  0  0  0  0  0  0  0
    0.0000   -2.7713    0.0000 H   0  0  0  0  0  0  0  0  0  0  0  0
   -2.4001   -1.3856    0.0000 C   0  0  0  0  0  0  0  0  0  0  0  0
   -3.2000   -2.7713    0.0000 H   0  0  0  0  0  0  0  0  0  0  0  0
   -3.2000   -0.0000    0.0000 C   0  0  0  0  0  0  0  0  0  0  0  0
   -4.8000    0.0000    0.0000 H   0  0  0  0  0  0  0  0  0  0  0  0
  1  2  1  0  0  0  0
  2  3  1  0  0  0  0
  3  4  1  0  0  0  0
  3  5  2  0  0  0  0
  5  6  1  0  0  0  0
  6  7  1  0  0  0  0
  6  8  1  0  0  0  0
  8  9  2  0  0  0  0
  8 10  1  0  0  0  0
 10 11  1  0  0  0  0
 10 12  1  0  0  0  0
 10 13  1  0  0  0  0
  5 14  1  0  0  0  0
 14 15  1  0  0  0  0
 14 16  2  0  0  0  0
 16 17  1  0  0  0  0
 16 18  1  0  0  0  0
 18  2  2  0  0  0  0
 18 19  1  0  0  0  0
M  END
> <ChemID>
100317

> <source_casrn>
351-28-0

> <CAS>
351-28-0

> <SMILES>
CC(=O)Nc1cccc(F)c1

> <NAME>
3-FLUOROACETANILIDE

> <preferred_name>
N-(3-Fluorophenyl)acetamide

> <iupac>
N-(3-FLUOROPHENYL)ACETAMIDE

> <MPID>
99592

> <dsstox_substance_id>
DTXSID00188594

> <Canonical_QSARr>
CC(=O)Nc1cccc(F)c1

> <InChI_Code_QSARr>
InChI=1S/C8H8FNO/c1-6(11)10-8-4-2-3-7(9)5-8/h2-5H,1H3,(H,10,11)

> <InChI Key_QSARr>
AQLLDCFUQXGLHM-UHFFFAOYSA-N

> <LogKOC>
1.57

$$$$
100322
  -INDIGO-08031722282D

 34 34  0  0  0  0  0  0  0  0999 V2000
    0.0000    0.0000    0.0000 P   0  0  0  0  0  0  0  0  0  0  0  0
    1.3857    0.8000    0.0000 O   0  0  0  0  0  0  0  0  0  0  0  0
    2.7713    0.0000    0.0000 C   0  0  0  0  0  0  0  0  0  0  0  0
    3.3836   -1.4782    0.0000 H   0  0  0  0  0  0  0  0  0  0  0  0
    2.1590   -1.4782    0.0000 H   0  0  0  0  0  0  0  0  0  0  0  0
    4.1570    0.8000    0.0000 C   0  0  0  0  0  0  0  0  0  0  0  0
    5.5426    1.6000    0.0000 H   0  0  0  0  0  0  0  0  0  0  0  0
    5.5426    0.0000    0.0000 H   0  0  0  0  0  0  0  0  0  0  0  0
    4.1570    2.4000    0.0000 H   0  0  0  0  0  0  0  0  0  0  0  0
   -1.3855   -0.8000    0.0000 O   0  0  0  0  0  0  0  0  0  0  0  0
   -2.7713    0.0000    0.0000 C   0  0  0  0  0  0  0  0  0  0  0  0
   -2.7713    1.6000    0.0000 C   0  0  0  0  0  0  0  0  0  0  0  0
   -1.3855    2.4000    0.0000 H   0  0  0  0  0  0  0  0  0  0  0  0
   -4.1568    2.4000    0.0000 Cl  0  0  0  0  0  0  0  0  0  0  0  0
   -4.1568   -0.8000    0.0000 C   0  0  0  0  0  0  0  0  0  0  0  0
   -5.5426    0.0000    0.0000 C   0  0  0  0  0  0  0  0  0  0  0  0
   -5.5426    1.6000    0.0000 Cl  0  0  0  0  0  0  0  0  0  0  0  0
   -6.9281   -0.8000    0.0000 C   0  0  0  0  0  0  0  0  0  0  0  0
   -8.3138    0.0000    0.0000 H   0  0  0  0  0  0  0  0  0  0  0  0
   -6.9281   -2.4000    0.0000 C   0  0  0  0  0  0  0  0  0  0  0  0
   -8.3138   -3.2000    0.0000 Cl  0  0  0  0  0  0  0  0  0  0  0  0
   -5.5426   -3.2000    0.0000 C   0  0  0  0  0  0  0  0  0  0  0  0
   -5.5426   -4.8000    0.0000 H   0  0  0  0  0  0  0  0  0  0  0  0
   -4.1568   -2.4000    0.0000 C   0  0  0  0  0  0  0  0  0  0  0  0
   -2.7713   -3.2000    0.0000 H   0  0  0  0  0  0  0  0  0  0  0  0
    0.0000    1.6000    0.0000 O   0  0  0  0  0  0  0  0  0  0  0  0
    1.3857   -0.8000    0.0000 O   0  0  0  0  0  0  0  0  0  0  0  0
    1.3857   -2.4000    0.0000 C   0  0  0  0  0  0  0  0  0  0  0  0
    0.4117   -3.6694    0.0000 H   0  0  0  0  0  0  0  0  0  0  0  0
   -0.2007   -2.6089    0.0000 H   0  0  0  0  0  0  0  0  0  0  0  0
    2.7713   -3.2000    0.0000 C   0  0  0  0  0  0  0  0  0  0  0  0
    4.1570   -4.0000    0.0000 H   0  0  0  0  0  0  0  0  0  0  0  0
    2.7713   -4.8000    0.0000 H   0  0  0  0  0  0  0  0  0  0  0  0
    4.1570   -2.4000    0.0000 H   0  0  0  0  0  0  0  0  0  0  0  0
  1  2  1  0  0  0  0
  2  3  1  0  0  0  0
  3  4  1  0  0  0  0
  3  5  1  0  0  0  0
  3  6  1  0  0  0  0
  6  7  1  0  0  0  0
  6  8  1  0  0  0  0
  6  9  1  0  0  0  0
  1 10  1  0  0  0  0
 10 11  1  0  0  0  0
 11 12  2  0  0  0  0
 12 13  1  0  0  0  0
 12 14  1  0  0  0  0
 11 15  1  0  0  0  0
 15 16  1  0  0  0  0
 16 17  1  0  0  0  0
 16 18  2  0  0  0  0
 18 19  1  0  0  0  0
 18 20  1  0  0  0  0
 20 21  1  0  0  0  0
 20 22  2  0  0  0  0
 22 23  1  0  0  0  0
 22 24  1  0  0  0  0
 24 15  2  0  0  0  0
 24 25  1  0  0  0  0
  1 26  2  0  0  0  0
  1 27  1  0  0  0  0
 27 28  1  0  0  0  0
 28 29  1  0  0  0  0
 28 30  1  0  0  0  0
 28 31  1  0  0  0  0
 31 32  1  0  0  0  0
 31 33  1  0  0  0  0
 31 34  1  0  0  0  0
M  END
> <ChemID>
100322

> <source_casrn>
470-90-6

> <CAS>
470-90-6

> <SMILES>
CCOP(=O)(OC(=CCl)c1ccc(Cl)cc1Cl)OCC

> <NAME>
CHLORFENVINPHOS

> <preferred_name>
Chlorfenvinphos

> <iupac>
2-chloro-1-(2,4-dichlorophenyl)ethenyl diethyl phosphate

> <MPID>
99596

> <dsstox_substance_id>
DTXSID7034250

> <Canonical_QSARr>
CCOP(=O)(OC(=CCl)c1ccc(Cl)cc1Cl)OCC

> <InChI_Code_QSARr>
InChI=1S/C12H14Cl3O4P/c1-3-17-20(16,18-4-2)19-12(8-13)10-6-5-9(14)7-11(10)15/h5-8H,3-4H2,1-2H3/b12-8+

> <InChI Key_QSARr>
FSAVDKDHPDSCTO-XYOKQWHBSA-N

> <LogKOC>
2.47

$$$$
100326
  -INDIGO-08031722282D

 21 21  0  0  0  0  0  0  0  0999 V2000
    1.5999    0.0000    0.0000 C   0  0  0  0  0  0  0  0  0  0  0  0
    2.4000   -1.3856    0.0000 C   0  0  0  0  0  0  0  0  0  0  0  0
    4.0000   -1.3856    0.0000 H   0  0  0  0  0  0  0  0  0  0  0  0
    1.6001   -2.7713    0.0000 C   0  0  0  0  0  0  0  0  0  0  0  0
    2.4000   -4.1569    0.0000 H   0  0  0  0  0  0  0  0  0  0  0  0
   -0.0001   -2.7713    0.0000 C   0  0  0  0  0  0  0  0  0  0  0  0
   -0.8000   -4.1569    0.0000 H   0  0  0  0  0  0  0  0  0  0  0  0
   -0.8000   -1.3856    0.0000 C   0  0  0  0  0  0  0  0  0  0  0  0
   -2.4000   -1.3856    0.0000 C   0  0  0  0  0  0  0  0  0  0  0  0
   -4.0000   -1.3856    0.0000 H   0  0  0  0  0  0  0  0  0  0  0  0
   -3.2001   -2.7713    0.0000 H   0  0  0  0  0  0  0  0  0  0  0  0
   -3.2001    0.0000    0.0000 H   0  0  0  0  0  0  0  0  0  0  0  0
   -0.0001    0.0000    0.0000 C   0  0  0  0  0  0  0  0  0  0  0  0
   -0.8000    1.3856    0.0000 C   0  0  0  0  0  0  0  0  0  0  0  0
   -1.5999    2.7713    0.0000 H   0  0  0  0  0  0  0  0  0  0  0  0
   -2.4000    1.3856    0.0000 H   0  0  0  0  0  0  0  0  0  0  0  0
    0.0001    2.7713    0.0000 H   0  0  0  0  0  0  0  0  0  0  0  0
    2.4000    1.3856    0.0000 C   0  0  0  0  0  0  0  0  0  0  0  0
    3.1999    2.7713    0.0000 H   0  0  0  0  0  0  0  0  0  0  0  0
    4.0000    1.3856    0.0000 H   0  0  0  0  0  0  0  0  0  0  0  0
    1.5999    2.7713    0.0000 H   0  0  0  0  0  0  0  0  0  0  0  0
  1  2  1  0  0  0  0
  2  3  1  0  0  0  0
  2  4  2  0  0  0  0
  4  5  1  0  0  0  0
  4  6  1  0  0  0  0
  6  7  1  0  0  0  0
  6  8  2  0  0  0  0
  8  9  1  0  0  0  0
  9 10  1  0  0  0  0
  9 11  1  0  0  0  0
  9 12  1  0  0  0  0
  8 13  1  0  0  0  0
 13  1  2  0  0  0  0
 13 14  1  0  0  0  0
 14 15  1  0  0  0  0
 14 16  1  0  0  0  0
 14 17  1  0  0  0  0
  1 18  1  0  0  0  0
 18 19  1  0  0  0  0
 18 20  1  0  0  0  0
 18 21  1  0  0  0  0
M  END
> <ChemID>
100326

> <source_casrn>
526-73-8

> <CAS>
526-73-8

> <SMILES>
Cc1c(C)cccc1C

> <NAME>
1,2,3-TRIMETHYLBENZENE

> <preferred_name>
1,2,3-Trimethylbenzene

> <iupac>
1,2,3-trimethylbenzene

> <MPID>
99600

> <dsstox_substance_id>
DTXSID8047769

> <Canonical_QSARr>
Cc1c(C)cccc1C

> <InChI_Code_QSARr>
InChI=1S/C9H12/c1-7-5-4-6-8(2)9(7)3/h4-6H,1-3H3

> <InChI Key_QSARr>
FYGHSUNMUKGBRK-UHFFFAOYSA-N

> <LogKOC>
2.8

$$$$
100330
  -INDIGO-08031722282D

 19 19  0  0  0  0  0  0  0  0999 V2000
    2.7713   -0.0000    0.0000 C   0  0  0  0  0  0  0  0  0  0  0  0
    4.1569    0.8000    0.0000 H   0  0  0  0  0  0  0  0  0  0  0  0
    4.1569   -0.8000    0.0000 H   0  0  0  0  0  0  0  0  0  0  0  0
    2.7713    1.6000    0.0000 H   0  0  0  0  0  0  0  0  0  0  0  0
    1.3856   -0.8000    0.0000 N   0  0  0  0  0  0  0  0  0  0  0  0
    0.0001   -0.0000    0.0000 C   0  0  0  0  0  0  0  0  0  0  0  0
    1.0284    1.2257    0.0000 H   0  0  0  0  0  0  0  0  0  0  0  0
   -1.0284    1.2257    0.0000 H   0  0  0  0  0  0  0  0  0  0  0  0
   -1.3856   -0.8000    0.0000 N   0  0  0  0  0  0  0  0  0  0  0  0
   -2.7712   -0.0000    0.0000 C   0  0  0  0  0  0  0  0  0  0  0  0
   -4.1569    0.8000    0.0000 H   0  0  0  0  0  0  0  0  0  0  0  0
   -4.1569   -0.8000    0.0000 H   0  0  0  0  0  0  0  0  0  0  0  0
   -2.7712    1.6000    0.0000 H   0  0  0  0  0  0  0  0  0  0  0  0
   -1.3856   -2.4000    0.0000 C   0  0  0  0  0  0  0  0  0  0  0  0
   -2.9614   -2.1222    0.0000 H   0  0  0  0  0  0  0  0  0  0  0  0
   -1.9329   -3.9035    0.0000 H   0  0  0  0  0  0  0  0  0  0  0  0
    0.0001   -3.2000    0.0000 S   0  0  0  0  0  0  0  0  0  0  0  0
    1.3856   -2.4000    0.0000 C   0  0  0  0  0  0  0  0  0  0  0  0
    2.7713   -3.2000    0.0000 S   0  0  0  0  0  0  0  0  0  0  0  0
  1  2  1  0  0  0  0
  1  3  1  0  0  0  0
  1  4  1  0  0  0  0
  1  5  1  0  0  0  0
  5  6  1  0  0  0  0
  6  7  1  0  0  0  0
  6  8  1  0  0  0  0
  6  9  1  0  0  0  0
  9 10  1  0  0  0  0
 10 11  1  0  0  0  0
 10 12  1  0  0  0  0
 10 13  1  0  0  0  0
  9 14  1  0  0  0  0
 14 15  1  0  0  0  0
 14 16  1  0  0  0  0
 14 17  1  0  0  0  0
 17 18  1  0  0  0  0
 18  5  1  0  0  0  0
 18 19  2  0  0  0  0
M  END
> <ChemID>
100330

> <source_casrn>
533-74-4

> <CAS>
533-74-4

> <SMILES>
N(CSC(N1C)=S)(C1)C

> <NAME>
DMTT (DAZOMET)

> <preferred_name>
Dazomet

> <iupac>
3,5-dimethyl-1,3,5-thiadiazinane-2-thione

> <MPID>
99604

> <dsstox_substance_id>
DTXSID7024902

> <Canonical_QSARr>
CN1CSC(=S)N(C)C1

> <InChI_Code_QSARr>
InChI=1S/C5H10N2S2/c1-6-3-7(2)5(8)9-4-6/h3-4H2,1-2H3

> <InChI Key_QSARr>
QAYICIQNSGETAS-UHFFFAOYSA-N

> <LogKOC>
1.0

$$$$
100334
  -INDIGO-08031722282D

  6  5  0  0  0  0  0  0  0  0999 V2000
   -0.0000    0.0000    0.0000 C   0  0  0  0  0  0  0  0  0  0  0  0
    0.8000    1.3856    0.0000 H   0  0  0  0  0  0  0  0  0  0  0  0
   -1.6000    0.0000    0.0000 C   0  0  0  0  0  0  0  0  0  0  0  0
   -2.4000    1.3856    0.0000 H   0  0  0  0  0  0  0  0  0  0  0  0
   -2.4000   -1.3856    0.0000 Br  0  0  0  0  0  0  0  0  0  0  0  0
    0.8000   -1.3856    0.0000 Br  0  0  0  0  0  0  0  0  0  0  0  0
  1  2  1  0  0  0  0
  1  3  2  0  0  0  0
  3  4  1  0  0  0  0
  3  5  1  0  0  0  0
  1  6  1  0  0  0  0
M  END
> <ChemID>
100334

> <source_casrn>
540-49-8

> <CAS>
540-49-8

> <SMILES>
BrC=CBr

> <NAME>
1,2-Ethylene Dibromide

> <preferred_name>
1,2-Dibromoethylene

> <iupac>


> <MPID>
99608

> <dsstox_substance_id>
DTXSID3060241

> <Canonical_QSARr>
BrC=CBr

> <InChI_Code_QSARr>
InChI=1S/C2H2Br2/c3-1-2-4/h1-2H/b2-1-

> <InChI Key_QSARr>
UWTUEMKLYAGTNQ-UPHRSURJSA-N

> <LogKOC>
1.65

$$$$
100338
  -INDIGO-08031722282D

 33 33  0  0  0  0  0  0  0  0999 V2000
    4.1568   -0.7999    0.0000 C   0  0  0  0  0  0  0  0  0  0  0  0
    5.5425    0.0000    0.0000 N   0  0  0  0  0  0  0  0  0  0  0  0
    5.5425    1.6000    0.0000 H   0  0  0  0  0  0  0  0  0  0  0  0
    6.9282   -0.7999    0.0000 C   0  0  0  0  0  0  0  0  0  0  0  0
    8.3139    0.0000    0.0000 C   0  0  0  0  0  0  0  0  0  0  0  0
    8.3139    1.6000    0.0000 H   0  0  0  0  0  0  0  0  0  0  0  0
    9.6994   -0.7999    0.0000 C   0  0  0  0  0  0  0  0  0  0  0  0
   11.0851    0.0000    0.0000 Cl  0  0  0  0  0  0  0  0  0  0  0  0
    9.6994   -2.3999    0.0000 C   0  0  0  0  0  0  0  0  0  0  0  0
   11.0851   -3.2000    0.0000 Cl  0  0  0  0  0  0  0  0  0  0  0  0
    8.3139   -3.2000    0.0000 C   0  0  0  0  0  0  0  0  0  0  0  0
    8.3139   -4.8000    0.0000 H   0  0  0  0  0  0  0  0  0  0  0  0
    6.9282   -2.3999    0.0000 C   0  0  0  0  0  0  0  0  0  0  0  0
    5.5425   -3.2000    0.0000 H   0  0  0  0  0  0  0  0  0  0  0  0
    2.7714    0.0000    0.0000 N   0  0  0  0  0  0  0  0  0  0  0  0
    1.3857   -0.7999    0.0000 C   0  0  0  0  0  0  0  0  0  0  0  0
    0.7733   -2.2782    0.0000 H   0  0  0  0  0  0  0  0  0  0  0  0
    1.9980   -2.2782    0.0000 H   0  0  0  0  0  0  0  0  0  0  0  0
   -0.0000    0.0000    0.0000 C   0  0  0  0  0  0  0  0  0  0  0  0
    0.6123    1.4782    0.0000 H   0  0  0  0  0  0  0  0  0  0  0  0
   -0.6122    1.4782    0.0000 H   0  0  0  0  0  0  0  0  0  0  0  0
   -1.3857   -0.7999    0.0000 C   0  0  0  0  0  0  0  0  0  0  0  0
   -1.9979   -2.2782    0.0000 H   0  0  0  0  0  0  0  0  0  0  0  0
   -0.7734   -2.2782    0.0000 H   0  0  0  0  0  0  0  0  0  0  0  0
   -2.7712    0.0000    0.0000 C   0  0  0  0  0  0  0  0  0  0  0  0
   -4.1569    0.8001    0.0000 H   0  0  0  0  0  0  0  0  0  0  0  0
   -4.1569   -0.7999    0.0000 H   0  0  0  0  0  0  0  0  0  0  0  0
   -2.7712    1.6000    0.0000 H   0  0  0  0  0  0  0  0  0  0  0  0
    2.7714    1.6000    0.0000 C   0  0  0  0  0  0  0  0  0  0  0  0
    2.7714    3.2000    0.0000 H   0  0  0  0  0  0  0  0  0  0  0  0
    1.3857    2.4001    0.0000 H   0  0  0  0  0  0  0  0  0  0  0  0
    4.1568    2.4001    0.0000 H   0  0  0  0  0  0  0  0  0  0  0  0
    4.1568   -2.4001    0.0000 O   0  0  0  0  0  0  0  0  0  0  0  0
  1  2  1  0  0  0  0
  2  3  1  0  0  0  0
  2  4  1  0  0  0  0
  4  5  1  0  0  0  0
  5  6  1  0  0  0  0
  5  7  2  0  0  0  0
  7  8  1  0  0  0  0
  7  9  1  0  0  0  0
  9 10  1  0  0  0  0
  9 11  2  0  0  0  0
 11 12  1  0  0  0  0
 11 13  1  0  0  0  0
 13  4  2  0  0  0  0
 13 14  1  0  0  0  0
  1 15  1  0  0  0  0
 15 16  1  0  0  0  0
 16 17  1  0  0  0  0
 16 18  1  0  0  0  0
 16 19  1  0  0  0  0
 19 20  1  0  0  0  0
 19 21  1  0  0  0  0
 19 22  1  0  0  0  0
 22 23  1  0  0  0  0
 22 24  1  0  0  0  0
 22 25  1  0  0  0  0
 25 26  1  0  0  0  0
 25 27  1  0  0  0  0
 25 28  1  0  0  0  0
 15 29  1  0  0  0  0
 29 30  1  0  0  0  0
 29 31  1  0  0  0  0
 29 32  1  0  0  0  0
  1 33  2  0  0  0  0
M  END
> <ChemID>
100338

> <source_casrn>
555-37-3

> <CAS>
555-37-3

> <SMILES>
CCCCN(C)C(=O)Nc1cc(Cl)c(Cl)cc1

> <NAME>
NEBURON

> <preferred_name>
Neburon

> <iupac>
1-butyl-3-(3,4-dichlorophenyl)-1-methylurea

> <MPID>
99612

> <dsstox_substance_id>
DTXSID4042200

> <Canonical_QSARr>
CCCCN(C)C(=O)Nc1cc(Cl)c(Cl)cc1

> <InChI_Code_QSARr>
InChI=1S/C12H16Cl2N2O/c1-3-4-7-16(2)12(17)15-9-5-6-10(13)11(14)8-9/h5-6,8H,3-4,7H2,1-2H3,(H,15,17)

> <InChI Key_QSARr>
CCGPUGMWYLICGL-UHFFFAOYSA-N

> <LogKOC>
3.4

$$$$
100342
  -INDIGO-08031722282D

 14 14  0  0  0  0  0  0  0  0999 V2000
    0.0000   -0.0000    0.0000 C   0  0  0  0  0  0  0  0  0  0  0  0
    1.6000   -0.0000    0.0000 N   0  0  0  0  0  0  0  0  0  0  0  0
    2.4000    1.3856    0.0000 O   0  0  0  0  0  0  0  0  0  0  0  0
    2.4000   -1.3856    0.0000 O   0  0  0  0  0  0  0  0  0  0  0  0
   -0.8000    1.3856    0.0000 C   0  0  0  0  0  0  0  0  0  0  0  0
    0.0000    2.7713    0.0000 H   0  0  0  0  0  0  0  0  0  0  0  0
   -2.4000    1.3856    0.0000 C   0  0  0  0  0  0  0  0  0  0  0  0
   -3.2000    2.7713    0.0000 H   0  0  0  0  0  0  0  0  0  0  0  0
   -3.2000   -0.0000    0.0000 C   0  0  0  0  0  0  0  0  0  0  0  0
   -4.8000   -0.0000    0.0000 Br  0  0  0  0  0  0  0  0  0  0  0  0
   -2.4000   -1.3856    0.0000 C   0  0  0  0  0  0  0  0  0  0  0  0
   -3.2000   -2.7713    0.0000 H   0  0  0  0  0  0  0  0  0  0  0  0
   -0.8000   -1.3856    0.0000 C   0  0  0  0  0  0  0  0  0  0  0  0
    0.0000   -2.7713    0.0000 H   0  0  0  0  0  0  0  0  0  0  0  0
  1  2  1  0  0  0  0
  2  3  2  0  0  0  0
  2  4  1  0  0  0  0
  1  5  1  0  0  0  0
  5  6  1  0  0  0  0
  5  7  2  0  0  0  0
  7  8  1  0  0  0  0
  7  9  1  0  0  0  0
  9 10  1  0  0  0  0
  9 11  2  0  0  0  0
 11 12  1  0  0  0  0
 11 13  1  0  0  0  0
 13  1  2  0  0  0  0
 13 14  1  0  0  0  0
M  CHG  2   2   1   4  -1
M  END
> <ChemID>
100342

> <source_casrn>
586-78-7

> <CAS>
586-78-7

> <SMILES>
[O-][N+](=O)c1ccc(Br)cc1

> <NAME>
4-BROMO-1-NITROBENZENE

> <preferred_name>
Benzene, 1-bromo-4-nitro-

> <iupac>
1-Bromo-4-nitrobenzene

> <MPID>
99616

> <dsstox_substance_id>
DTXSID7060415

> <Canonical_QSARr>
[O-][N+](=O)c1ccc(Br)cc1

> <InChI_Code_QSARr>
InChI=1S/C6H4BrNO2/c7-5-1-3-6(4-2-5)8(9)10/h1-4H

> <InChI Key_QSARr>
ZDFBKZUDCQQKAC-UHFFFAOYSA-N

> <LogKOC>
2.42

$$$$
100346
  -INDIGO-08031722282D

 12 12  0  0  0  0  0  0  0  0999 V2000
   -0.0000   -0.0000    0.0000 C   0  0  0  0  0  0  0  0  0  0  0  0
    0.8000   -1.3857    0.0000 C   0  0  0  0  0  0  0  0  0  0  0  0
    2.4000   -1.3857    0.0000 H   0  0  0  0  0  0  0  0  0  0  0  0
   -0.0000   -2.7713    0.0000 C   0  0  0  0  0  0  0  0  0  0  0  0
    0.8000   -4.1569    0.0000 H   0  0  0  0  0  0  0  0  0  0  0  0
   -1.6000   -2.7713    0.0000 C   0  0  0  0  0  0  0  0  0  0  0  0
   -2.4000   -4.1569    0.0000 H   0  0  0  0  0  0  0  0  0  0  0  0
   -2.4000   -1.3856    0.0000 C   0  0  0  0  0  0  0  0  0  0  0  0
   -4.0000   -1.3856    0.0000 H   0  0  0  0  0  0  0  0  0  0  0  0
   -1.6000   -0.0000    0.0000 C   0  0  0  0  0  0  0  0  0  0  0  0
   -2.4000    1.3856    0.0000 H   0  0  0  0  0  0  0  0  0  0  0  0
    0.8000    1.3856    0.0000 I   0  0  0  0  0  0  0  0  0  0  0  0
  1  2  1  0  0  0  0
  2  3  1  0  0  0  0
  2  4  2  0  0  0  0
  4  5  1  0  0  0  0
  4  6  1  0  0  0  0
  6  7  1  0  0  0  0
  6  8  2  0  0  0  0
  8  9  1  0  0  0  0
  8 10  1  0  0  0  0
 10  1  2  0  0  0  0
 10 11  1  0  0  0  0
  1 12  1  0  0  0  0
M  END
> <ChemID>
100346

> <source_casrn>
591-50-4

> <CAS>
591-50-4

> <SMILES>
Ic1ccccc1

> <NAME>
IODOBENZENE

> <preferred_name>
Benzene, iodo-

> <iupac>
Iodobenzene

> <MPID>
99620

> <dsstox_substance_id>
DTXSID8060452

> <Canonical_QSARr>
Ic1ccccc1

> <InChI_Code_QSARr>
InChI=1S/C6H5I/c7-6-4-2-1-3-5-6/h1-5H

> <InChI Key_QSARr>
SNHMUERNLJLMHN-UHFFFAOYSA-N

> <LogKOC>
3.1

$$$$
100350
  -INDIGO-08031722282D

 12 12  0  0  0  0  0  0  0  0999 V2000
   -0.0000   -0.0000    0.0000 C   0  0  0  0  0  0  0  0  0  0  0  0
    0.8000   -1.3857    0.0000 C   0  0  0  0  0  0  0  0  0  0  0  0
    2.4000   -1.3857    0.0000 Cl  0  0  0  0  0  0  0  0  0  0  0  0
   -0.0000   -2.7713    0.0000 C   0  0  0  0  0  0  0  0  0  0  0  0
    0.8000   -4.1569    0.0000 Cl  0  0  0  0  0  0  0  0  0  0  0  0
   -1.6000   -2.7713    0.0000 C   0  0  0  0  0  0  0  0  0  0  0  0
   -2.4000   -4.1569    0.0000 Cl  0  0  0  0  0  0  0  0  0  0  0  0
   -2.4000   -1.3856    0.0000 C   0  0  0  0  0  0  0  0  0  0  0  0
   -4.0000   -1.3856    0.0000 Cl  0  0  0  0  0  0  0  0  0  0  0  0
   -1.6000   -0.0000    0.0000 C   0  0  0  0  0  0  0  0  0  0  0  0
   -2.4000    1.3856    0.0000 H   0  0  0  0  0  0  0  0  0  0  0  0
    0.8000    1.3856    0.0000 Cl  0  0  0  0  0  0  0  0  0  0  0  0
  1  2  1  0  0  0  0
  2  3  1  0  0  0  0
  2  4  2  0  0  0  0
  4  5  1  0  0  0  0
  4  6  1  0  0  0  0
  6  7  1  0  0  0  0
  6  8  2  0  0  0  0
  8  9  1  0  0  0  0
  8 10  1  0  0  0  0
 10  1  2  0  0  0  0
 10 11  1  0  0  0  0
  1 12  1  0  0  0  0
M  END
> <ChemID>
100350

> <source_casrn>
608-93-5

> <CAS>
608-93-5

> <SMILES>
Clc1c(Cl)c(Cl)cc(Cl)c1Cl

> <NAME>
PENTACHLOROBENZENE

> <preferred_name>
Pentachlorobenzene

> <iupac>
1,2,3,4,5-pentachlorobenzene

> <MPID>
99624

> <dsstox_substance_id>
DTXSID7024247

> <Canonical_QSARr>
Clc1c(Cl)c(Cl)cc(Cl)c1Cl

> <InChI_Code_QSARr>
InChI=1S/C6HCl5/c7-2-1-3(8)5(10)6(11)4(2)9/h1H

> <InChI Key_QSARr>
CEOCDNVZRAIOQZ-UHFFFAOYSA-N

> <LogKOC>
3.5

$$$$
100354
  -INDIGO-08031722282D

 19 19  0  0  0  0  0  0  0  0999 V2000
    0.0000    0.0000    0.0000 C   0  0  0  0  0  0  0  0  0  0  0  0
    0.0000    1.6000    0.0000 C   0  0  0  0  0  0  0  0  0  0  0  0
    1.3857    2.4000    0.0000 N   0  0  0  0  0  0  0  0  0  0  0  0
    1.3857    4.0000    0.0000 O   0  0  0  0  0  0  0  0  0  0  0  0
    2.7713    1.6000    0.0000 O   0  0  0  0  0  0  0  0  0  0  0  0
   -1.3856    2.4000    0.0000 C   0  0  0  0  0  0  0  0  0  0  0  0
   -1.3856    4.0000    0.0000 H   0  0  0  0  0  0  0  0  0  0  0  0
   -2.7713    1.6000    0.0000 C   0  0  0  0  0  0  0  0  0  0  0  0
   -4.1570    2.4000    0.0000 H   0  0  0  0  0  0  0  0  0  0  0  0
   -2.7713    0.0000    0.0000 C   0  0  0  0  0  0  0  0  0  0  0  0
   -4.1570   -0.8000    0.0000 N   0  0  0  0  0  0  0  0  0  0  0  0
   -5.5426    0.0000    0.0000 O   0  0  0  0  0  0  0  0  0  0  0  0
   -4.1570   -2.4000    0.0000 O   0  0  0  0  0  0  0  0  0  0  0  0
   -1.3856   -0.8000    0.0000 C   0  0  0  0  0  0  0  0  0  0  0  0
   -1.3856   -2.4000    0.0000 H   0  0  0  0  0  0  0  0  0  0  0  0
    1.3857   -0.8000    0.0000 C   0  0  0  0  0  0  0  0  0  0  0  0
    1.3857   -2.4000    0.0000 O   0  0  0  0  0  0  0  0  0  0  0  0
    2.7713   -3.2000    0.0000 H   0  0  0  0  0  0  0  0  0  0  0  0
    2.7713    0.0000    0.0000 O   0  0  0  0  0  0  0  0  0  0  0  0
  1  2  1  0  0  0  0
  2  3  1  0  0  0  0
  3  4  2  0  0  0  0
  3  5  1  0  0  0  0
  2  6  2  0  0  0  0
  6  7  1  0  0  0  0
  6  8  1  0  0  0  0
  8  9  1  0  0  0  0
  8 10  2  0  0  0  0
 10 11  1  0  0  0  0
 11 12  2  0  0  0  0
 11 13  1  0  0  0  0
 10 14  1  0  0  0  0
 14  1  2  0  0  0  0
 14 15  1  0  0  0  0
  1 16  1  0  0  0  0
 16 17  1  0  0  0  0
 17 18  1  0  0  0  0
 16 19  2  0  0  0  0
M  CHG  4   3   1   5  -1  11   1  13  -1
M  END
> <ChemID>
100354

> <source_casrn>
610-28-6

> <CAS>
610-28-6

> <SMILES>
[O-][N+](=O)c1ccc(cc1C(O)=O)[N+]([O-])=O

> <NAME>
Benzoic acid, 2,5-dinitro-

> <preferred_name>
Benzoic acid, 2,5-dinitro-

> <iupac>
2,5-Dinitrobenzoic acid

> <MPID>
99628

> <dsstox_substance_id>
DTXSID3060582

> <Canonical_QSARr>
[O-][N+](=O)c1ccc(cc1C(O)=O)[N+]([O-])=O

> <InChI_Code_QSARr>
InChI=1S/C7H4N2O6/c10-7(11)5-3-4(8(12)13)1-2-6(5)9(14)15/h1-3H,(H,10,11)

> <InChI Key_QSARr>
YKMDNKRCCODWMG-UHFFFAOYSA-N

> <LogKOC>
2.3

$$$$
100358
  -INDIGO-08031722282D

 25 25  0  0  0  0  0  0  0  0999 V2000
   -2.7713    0.0000    0.0000 O   0  0  0  0  0  0  0  0  0  0  0  0
   -1.3856    0.8000    0.0000 C   0  0  0  0  0  0  0  0  0  0  0  0
   -1.3856    2.4000    0.0000 O   0  0  0  0  0  0  0  0  0  0  0  0
   -0.0001    0.0000    0.0000 C   0  0  0  0  0  0  0  0  0  0  0  0
   -0.0001   -1.6000    0.0000 C   0  0  0  0  0  0  0  0  0  0  0  0
   -1.3856   -2.4000    0.0000 H   0  0  0  0  0  0  0  0  0  0  0  0
    1.3856   -2.4000    0.0000 C   0  0  0  0  0  0  0  0  0  0  0  0
    1.3856   -4.0000    0.0000 N   0  0  0  0  0  0  0  0  0  0  0  0
    2.7713   -4.8000    0.0000 O   0  0  0  0  0  0  0  0  0  0  0  0
   -0.0001   -4.8000    0.0000 O   0  0  0  0  0  0  0  0  0  0  0  0
    2.7713   -1.6000    0.0000 C   0  0  0  0  0  0  0  0  0  0  0  0
    4.1569   -2.4000    0.0000 H   0  0  0  0  0  0  0  0  0  0  0  0
    2.7713    0.0000    0.0000 C   0  0  0  0  0  0  0  0  0  0  0  0
    4.1569    0.8000    0.0000 N   0  0  0  0  0  0  0  0  0  0  0  0
    5.5426    0.0000    0.0000 O   0  0  0  0  0  0  0  0  0  0  0  0
    4.1569    2.4000    0.0000 O   0  0  0  0  0  0  0  0  0  0  0  0
    1.3856    0.8000    0.0000 C   0  0  0  0  0  0  0  0  0  0  0  0
    1.3856    2.4000    0.0000 H   0  0  0  0  0  0  0  0  0  0  0  0
   -4.1570    0.8000    0.0000 C   0  0  0  0  0  0  0  0  0  0  0  0
   -4.7692    2.2782    0.0000 H   0  0  0  0  0  0  0  0  0  0  0  0
   -3.5446    2.2782    0.0000 H   0  0  0  0  0  0  0  0  0  0  0  0
   -5.5425    0.0000    0.0000 C   0  0  0  0  0  0  0  0  0  0  0  0
   -6.9282   -0.8000    0.0000 H   0  0  0  0  0  0  0  0  0  0  0  0
   -6.9282    0.8000    0.0000 H   0  0  0  0  0  0  0  0  0  0  0  0
   -5.5425   -1.6000    0.0000 H   0  0  0  0  0  0  0  0  0  0  0  0
  1  2  1  0  0  0  0
  2  3  2  0  0  0  0
  2  4  1  0  0  0  0
  4  5  1  0  0  0  0
  5  6  1  0  0  0  0
  5  7  2  0  0  0  0
  7  8  1  0  0  0  0
  8  9  1  0  0  0  0
  8 10  2  0  0  0  0
  7 11  1  0  0  0  0
 11 12  1  0  0  0  0
 11 13  2  0  0  0  0
 13 14  1  0  0  0  0
 14 15  1  0  0  0  0
 14 16  2  0  0  0  0
 13 17  1  0  0  0  0
 17  4  2  0  0  0  0
 17 18  1  0  0  0  0
  1 19  1  0  0  0  0
 19 20  1  0  0  0  0
 19 21  1  0  0  0  0
 19 22  1  0  0  0  0
 22 23  1  0  0  0  0
 22 24  1  0  0  0  0
 22 25  1  0  0  0  0
M  CHG  4   8   1   9  -1  14   1  15  -1
M  END
> <ChemID>
100358

> <source_casrn>
618-71-3

> <CAS>
618-71-3

> <SMILES>
CCOC(=O)c1cc(cc(c1)[N+]([O-])=O)[N+]([O-])=O

> <NAME>
3,5-Dinitrobenzoic acid ethyl ester

> <preferred_name>
Ethyl 3,5-dinitrobenzoate

> <iupac>
Ethyl 3,5-dinitrobenzoate

> <MPID>
99632

> <dsstox_substance_id>
DTXSID20210801

> <Canonical_QSARr>
CCOC(=O)c1cc(cc(c1)[N+]([O-])=O)[N+]([O-])=O

> <InChI_Code_QSARr>
InChI=1S/C9H8N2O6/c1-2-17-9(12)6-3-7(10(13)14)5-8(4-6)11(15)16/h3-5H,2H2,1H3

> <InChI Key_QSARr>
IBQREHJPMPCXQA-UHFFFAOYSA-N

> <LogKOC>
2.74

$$$$
100362
  -INDIGO-08031722282D

 19 19  0  0  0  0  0  0  0  0999 V2000
   -3.2000    2.7713    0.0000 Br  0  0  0  0  0  0  0  0  0  0  0  0
   -2.4001    1.3856    0.0000 C   0  0  0  0  0  0  0  0  0  0  0  0
   -0.8000    1.3856    0.0000 C   0  0  0  0  0  0  0  0  0  0  0  0
    0.0000    2.7713    0.0000 H   0  0  0  0  0  0  0  0  0  0  0  0
    0.0000    0.0000    0.0000 C   0  0  0  0  0  0  0  0  0  0  0  0
    1.6000    0.0000    0.0000 N   0  0  0  0  0  0  0  0  0  0  0  0
    2.3999    1.3856    0.0000 H   0  0  0  0  0  0  0  0  0  0  0  0
    2.3999   -1.3856    0.0000 C   0  0  0  0  0  0  0  0  0  0  0  0
    1.6000   -2.7713    0.0000 O   0  0  0  0  0  0  0  0  0  0  0  0
    4.0000   -1.3856    0.0000 C   0  0  0  0  0  0  0  0  0  0  0  0
    5.6000   -1.3856    0.0000 H   0  0  0  0  0  0  0  0  0  0  0  0
    4.8000   -2.7713    0.0000 H   0  0  0  0  0  0  0  0  0  0  0  0
    4.8000    0.0000    0.0000 H   0  0  0  0  0  0  0  0  0  0  0  0
   -0.8000   -1.3856    0.0000 C   0  0  0  0  0  0  0  0  0  0  0  0
    0.0000   -2.7713    0.0000 H   0  0  0  0  0  0  0  0  0  0  0  0
   -2.4001   -1.3856    0.0000 C   0  0  0  0  0  0  0  0  0  0  0  0
   -3.2000   -2.7713    0.0000 H   0  0  0  0  0  0  0  0  0  0  0  0
   -3.2000   -0.0000    0.0000 C   0  0  0  0  0  0  0  0  0  0  0  0
   -4.8000    0.0000    0.0000 H   0  0  0  0  0  0  0  0  0  0  0  0
  1  2  1  0  0  0  0
  2  3  1  0  0  0  0
  3  4  1  0  0  0  0
  3  5  2  0  0  0  0
  5  6  1  0  0  0  0
  6  7  1  0  0  0  0
  6  8  1  0  0  0  0
  8  9  2  0  0  0  0
  8 10  1  0  0  0  0
 10 11  1  0  0  0  0
 10 12  1  0  0  0  0
 10 13  1  0  0  0  0
  5 14  1  0  0  0  0
 14 15  1  0  0  0  0
 14 16  2  0  0  0  0
 16 17  1  0  0  0  0
 16 18  1  0  0  0  0
 18  2  2  0  0  0  0
 18 19  1  0  0  0  0
M  END
> <ChemID>
100362

> <source_casrn>
621-38-5

> <CAS>
621-38-5

> <SMILES>
CC(=O)Nc1cccc(Br)c1

> <NAME>
3-BROMOACETANILIDE

> <preferred_name>
Acetamide, N-(3-bromophenyl)- (9CI)

> <iupac>
N-(3-bromophenyl)acetamide

> <MPID>
99636

> <dsstox_substance_id>
DTXSID50211149

> <Canonical_QSARr>
CC(=O)Nc1cccc(Br)c1

> <InChI_Code_QSARr>
InChI=1S/C8H8BrNO/c1-6(11)10-8-4-2-3-7(9)5-8/h2-5H,1H3,(H,10,11)

> <InChI Key_QSARr>
XXHOHJTVFUJJMT-UHFFFAOYSA-N

> <LogKOC>
2.01

$$$$
100366
  -INDIGO-08031722282D

 14 14  0  0  0  0  0  0  0  0999 V2000
    1.6000   -0.0000    0.0000 N   0  0  0  0  0  0  0  0  0  0  0  0
    2.4000    1.3856    0.0000 H   0  0  0  0  0  0  0  0  0  0  0  0
    2.4000   -1.3856    0.0000 H   0  0  0  0  0  0  0  0  0  0  0  0
    0.0000   -0.0000    0.0000 C   0  0  0  0  0  0  0  0  0  0  0  0
   -0.8000    1.3856    0.0000 C   0  0  0  0  0  0  0  0  0  0  0  0
    0.0000    2.7713    0.0000 Cl  0  0  0  0  0  0  0  0  0  0  0  0
   -2.4000    1.3856    0.0000 C   0  0  0  0  0  0  0  0  0  0  0  0
   -3.2000    2.7713    0.0000 Cl  0  0  0  0  0  0  0  0  0  0  0  0
   -3.2000   -0.0000    0.0000 C   0  0  0  0  0  0  0  0  0  0  0  0
   -4.8000   -0.0000    0.0000 Cl  0  0  0  0  0  0  0  0  0  0  0  0
   -2.4000   -1.3856    0.0000 C   0  0  0  0  0  0  0  0  0  0  0  0
   -3.2000   -2.7713    0.0000 H   0  0  0  0  0  0  0  0  0  0  0  0
   -0.8000   -1.3856    0.0000 C   0  0  0  0  0  0  0  0  0  0  0  0
    0.0000   -2.7713    0.0000 H   0  0  0  0  0  0  0  0  0  0  0  0
  1  2  1  0  0  0  0
  1  3  1  0  0  0  0
  1  4  1  0  0  0  0
  4  5  1  0  0  0  0
  5  6  1  0  0  0  0
  5  7  2  0  0  0  0
  7  8  1  0  0  0  0
  7  9  1  0  0  0  0
  9 10  1  0  0  0  0
  9 11  2  0  0  0  0
 11 12  1  0  0  0  0
 11 13  1  0  0  0  0
 13  4  2  0  0  0  0
 13 14  1  0  0  0  0
M  END
> <ChemID>
100366

> <source_casrn>
634-67-3

> <CAS>
634-67-3

> <SMILES>
Nc1ccc(Cl)c(Cl)c1Cl

> <NAME>
2,3,4-TRICHLOROANILINE

> <preferred_name>
2,3,4-Trichloroaniline

> <iupac>
2,3,4-trichloroaniline

> <MPID>
99640

> <dsstox_substance_id>
DTXSID2022098

> <Canonical_QSARr>
Nc1ccc(Cl)c(Cl)c1Cl

> <InChI_Code_QSARr>
InChI=1S/C6H4Cl3N/c7-3-1-2-4(10)6(9)5(3)8/h1-2H,10H2

> <InChI Key_QSARr>
RRJUYQOFOMFVQS-UHFFFAOYSA-N

> <LogKOC>
2.6

$$$$
100370
  -INDIGO-08031722282D

 18 18  0  0  0  0  0  0  0  0999 V2000
    0.0000   -0.0000    0.0000 S   0  0  0  0  0  0  0  0  0  0  0  0
    0.0000    1.6000    0.0000 O   0  0  0  0  0  0  0  0  0  0  0  0
    0.0000   -1.6000    0.0000 O   0  0  0  0  0  0  0  0  0  0  0  0
   -1.5999   -0.0000    0.0000 C   0  0  0  0  0  0  0  0  0  0  0  0
   -2.4000    1.3856    0.0000 C   0  0  0  0  0  0  0  0  0  0  0  0
   -1.6001    2.7713    0.0000 F   0  0  0  0  0  0  0  0  0  0  0  0
   -4.0000    1.3856    0.0000 C   0  0  0  0  0  0  0  0  0  0  0  0
   -4.7999    2.7713    0.0000 F   0  0  0  0  0  0  0  0  0  0  0  0
   -4.7999   -0.0000    0.0000 C   0  0  0  0  0  0  0  0  0  0  0  0
   -6.4000   -0.0000    0.0000 F   0  0  0  0  0  0  0  0  0  0  0  0
   -4.0000   -1.3856    0.0000 C   0  0  0  0  0  0  0  0  0  0  0  0
   -4.8001   -2.7713    0.0000 F   0  0  0  0  0  0  0  0  0  0  0  0
   -2.4000   -1.3856    0.0000 C   0  0  0  0  0  0  0  0  0  0  0  0
   -1.5999   -2.7713    0.0000 F   0  0  0  0  0  0  0  0  0  0  0  0
    1.6001   -0.0000    0.0000 C   0  0  0  0  0  0  0  0  0  0  0  0
    3.2000   -0.0000    0.0000 H   0  0  0  0  0  0  0  0  0  0  0  0
    2.4000   -1.3856    0.0000 H   0  0  0  0  0  0  0  0  0  0  0  0
    2.4000    1.3856    0.0000 H   0  0  0  0  0  0  0  0  0  0  0  0
  1  2  2  0  0  0  0
  1  3  2  0  0  0  0
  1  4  1  0  0  0  0
  4  5  1  0  0  0  0
  5  6  1  0  0  0  0
  5  7  2  0  0  0  0
  7  8  1  0  0  0  0
  7  9  1  0  0  0  0
  9 10  1  0  0  0  0
  9 11  2  0  0  0  0
 11 12  1  0  0  0  0
 11 13  1  0  0  0  0
 13  4  2  0  0  0  0
 13 14  1  0  0  0  0
  1 15  1  0  0  0  0
 15 16  1  0  0  0  0
 15 17  1  0  0  0  0
 15 18  1  0  0  0  0
M  END
> <ChemID>
100370

> <source_casrn>
651-85-4

> <CAS>
651-85-4

> <SMILES>
Fc1c(F)c(F)c(F)c(F)c1S(=O)(=O)C

> <NAME>
PENTAFLUOROPHENYL METHYL SUFONE

> <preferred_name>
Sulfone, methyl pentafluorophenyl

> <iupac>
1,2,3,4,5-pentafluoro-6-methylsulfonylbenzene

> <MPID>
99644

> <dsstox_substance_id>
DTXSID30215403

> <Canonical_QSARr>
CS(=O)(=O)c1c(F)c(F)c(F)c(F)c1F

> <InChI_Code_QSARr>
InChI=1S/C7H3F5O2S/c1-15(13,14)7-5(11)3(9)2(8)4(10)6(7)12/h1H3

> <InChI Key_QSARr>
WFYROSQTNAJIIF-UHFFFAOYSA-N

> <LogKOC>
1.46

$$$$
100374
  -INDIGO-08031722282D

 21 20  0  0  0  0  0  0  0  0999 V2000
    2.4000   -1.3857    0.0000 C   0  0  0  0  0  0  0  0  0  0  0  0
    3.2001   -2.7713    0.0000 H   0  0  0  0  0  0  0  0  0  0  0  0
    4.0000   -1.3857    0.0000 H   0  0  0  0  0  0  0  0  0  0  0  0
    1.6001   -2.7713    0.0000 H   0  0  0  0  0  0  0  0  0  0  0  0
    0.8000   -1.3857    0.0000 C   0  0  0  0  0  0  0  0  0  0  0  0
    0.0001   -2.7713    0.0000 O   0  0  0  0  0  0  0  0  0  0  0  0
    0.0001    0.0000    0.0000 N   0  0  0  0  0  0  0  0  0  0  0  0
    0.8000    1.3857    0.0000 C   0  0  0  0  0  0  0  0  0  0  0  0
    0.5911    2.9720    0.0000 H   0  0  0  0  0  0  0  0  0  0  0  0
   -0.4693    2.3596    0.0000 H   0  0  0  0  0  0  0  0  0  0  0  0
    2.4000    1.3857    0.0000 C   0  0  0  0  0  0  0  0  0  0  0  0
    3.2001    2.7713    0.0000 H   0  0  0  0  0  0  0  0  0  0  0  0
    4.0000    1.3857    0.0000 H   0  0  0  0  0  0  0  0  0  0  0  0
    1.6001    2.7713    0.0000 H   0  0  0  0  0  0  0  0  0  0  0  0
   -1.5999    0.0000    0.0000 C   0  0  0  0  0  0  0  0  0  0  0  0
   -1.8088    1.5863    0.0000 H   0  0  0  0  0  0  0  0  0  0  0  0
   -2.8694    0.9740    0.0000 H   0  0  0  0  0  0  0  0  0  0  0  0
   -2.4000   -1.3857    0.0000 C   0  0  0  0  0  0  0  0  0  0  0  0
   -4.0000   -1.3857    0.0000 H   0  0  0  0  0  0  0  0  0  0  0  0
   -3.2001   -2.7713    0.0000 H   0  0  0  0  0  0  0  0  0  0  0  0
   -3.1999    0.0000    0.0000 H   0  0  0  0  0  0  0  0  0  0  0  0
  1  2  1  0  0  0  0
  1  3  1  0  0  0  0
  1  4  1  0  0  0  0
  1  5  1  0  0  0  0
  5  6  2  0  0  0  0
  5  7  1  0  0  0  0
  7  8  1  0  0  0  0
  8  9  1  0  0  0  0
  8 10  1  0  0  0  0
  8 11  1  0  0  0  0
 11 12  1  0  0  0  0
 11 13  1  0  0  0  0
 11 14  1  0  0  0  0
  7 15  1  0  0  0  0
 15 16  1  0  0  0  0
 15 17  1  0  0  0  0
 15 18  1  0  0  0  0
 18 19  1  0  0  0  0
 18 20  1  0  0  0  0
 18 21  1  0  0  0  0
M  END
> <ChemID>
100374

> <source_casrn>
685-91-6

> <CAS>
685-91-6

> <SMILES>
O=C(N(CC)CC)C

> <NAME>
DIETHYLACETAMIDE

> <preferred_name>
Diethylacetamide

> <iupac>
N,N-diethylacetamide

> <MPID>
99648

> <dsstox_substance_id>
DTXSID9020459

> <Canonical_QSARr>
CC(=O)N(CC)CC

> <InChI_Code_QSARr>
InChI=1S/C6H13NO/c1-4-7(5-2)6(3)8/h4-5H2,1-3H3

> <InChI Key_QSARr>
AJFDBNQQDYLMJN-UHFFFAOYSA-N

> <LogKOC>
1.84

$$$$
100378
  -INDIGO-08031722282D

 31 32  0  0  0  0  0  0  0  0999 V2000
    0.0001   -0.0001    0.0000 N   0  0  0  0  0  0  0  0  0  0  0  0
    0.9405   -1.2945    0.0000 C   0  0  0  0  0  0  0  0  0  0  0  0
    0.4460   -2.8161    0.0000 O   0  0  0  0  0  0  0  0  0  0  0  0
    2.4621   -0.7999    0.0000 C   0  0  0  0  0  0  0  0  0  0  0  0
    2.4621    0.8000    0.0000 C   0  0  0  0  0  0  0  0  0  0  0  0
    3.8478    1.6000    0.0000 C   0  0  0  0  0  0  0  0  0  0  0  0
    3.8478    3.2000    0.0000 H   0  0  0  0  0  0  0  0  0  0  0  0
    5.2333    0.8000    0.0000 C   0  0  0  0  0  0  0  0  0  0  0  0
    6.6191    1.6000    0.0000 H   0  0  0  0  0  0  0  0  0  0  0  0
    5.2333   -0.7999    0.0000 C   0  0  0  0  0  0  0  0  0  0  0  0
    6.6191   -1.6000    0.0000 H   0  0  0  0  0  0  0  0  0  0  0  0
    3.8478   -1.6000    0.0000 C   0  0  0  0  0  0  0  0  0  0  0  0
    3.8478   -3.2000    0.0000 H   0  0  0  0  0  0  0  0  0  0  0  0
    0.9405    1.2945    0.0000 C   0  0  0  0  0  0  0  0  0  0  0  0
    0.4460    2.8161    0.0000 O   0  0  0  0  0  0  0  0  0  0  0  0
   -1.6000   -0.0001    0.0000 C   0  0  0  0  0  0  0  0  0  0  0  0
   -1.8088   -1.5864    0.0000 H   0  0  0  0  0  0  0  0  0  0  0  0
   -2.8693   -0.9740    0.0000 H   0  0  0  0  0  0  0  0  0  0  0  0
   -2.4000    1.3856    0.0000 S   0  0  0  0  0  0  0  0  0  0  0  0
   -4.0001    1.3856    0.0000 P   0  0  0  0  0  0  0  0  0  0  0  0
   -4.8000   -0.0001    0.0000 S   0  0  0  0  0  0  0  0  0  0  0  0
   -5.6000    1.3856    0.0000 O   0  0  0  0  0  0  0  0  0  0  0  0
   -6.3999   -0.0001    0.0000 C   0  0  0  0  0  0  0  0  0  0  0  0
   -8.0000   -0.0001    0.0000 H   0  0  0  0  0  0  0  0  0  0  0  0
   -7.2001   -1.3856    0.0000 H   0  0  0  0  0  0  0  0  0  0  0  0
   -5.6000   -1.3856    0.0000 H   0  0  0  0  0  0  0  0  0  0  0  0
   -4.8000    2.7713    0.0000 O   0  0  0  0  0  0  0  0  0  0  0  0
   -4.0001    4.1569    0.0000 C   0  0  0  0  0  0  0  0  0  0  0  0
   -4.8000    5.5426    0.0000 H   0  0  0  0  0  0  0  0  0  0  0  0
   -3.1999    5.5426    0.0000 H   0  0  0  0  0  0  0  0  0  0  0  0
   -2.4000    4.1569    0.0000 H   0  0  0  0  0  0  0  0  0  0  0  0
  1  2  1  0  0  0  0
  2  3  2  0  0  0  0
  2  4  1  0  0  0  0
  4  5  1  0  0  0  0
  5  6  2  0  0  0  0
  6  7  1  0  0  0  0
  6  8  1  0  0  0  0
  8  9  1  0  0  0  0
  8 10  2  0  0  0  0
 10 11  1  0  0  0  0
 10 12  1  0  0  0  0
 12  4  2  0  0  0  0
 12 13  1  0  0  0  0
  5 14  1  0  0  0  0
 14  1  1  0  0  0  0
 14 15  2  0  0  0  0
  1 16  1  0  0  0  0
 16 17  1  0  0  0  0
 16 18  1  0  0  0  0
 16 19  1  0  0  0  0
 19 20  1  0  0  0  0
 20 21  2  0  0  0  0
 20 22  1  0  0  0  0
 22 23  1  0  0  0  0
 23 24  1  0  0  0  0
 23 25  1  0  0  0  0
 23 26  1  0  0  0  0
 20 27  1  0  0  0  0
 27 28  1  0  0  0  0
 28 29  1  0  0  0  0
 28 30  1  0  0  0  0
 28 31  1  0  0  0  0
M  END
> <ChemID>
100378

> <source_casrn>
732-11-6

> <CAS>
732-11-6

> <SMILES>
COP(=S)(OC)SCN1C(=O)c2ccccc2C1=O

> <NAME>
PHOSMET

> <preferred_name>
Phosmet

> <iupac>
S-[(1,3-dioxo-1,3-dihydro-2H-isoindol-2-yl)methyl] O,O-dimethyl phosphorodithioate

> <MPID>
99652

> <dsstox_substance_id>
DTXSID5024261

> <Canonical_QSARr>
COP(=S)(OC)SCN1C(=O)c2ccccc2C1=O

> <InChI_Code_QSARr>
InChI=1S/C11H12NO4PS2/c1-15-17(18,16-2)19-7-12-10(13)8-5-3-4-6-9(8)11(12)14/h3-6H,7H2,1-2H3

> <InChI Key_QSARr>
LMNZTLDVJIUSHT-UHFFFAOYSA-N

> <LogKOC>
2.91

$$$$
100382
  -INDIGO-08031722282D

 27 29  0  0  0  0  0  0  0  0999 V2000
   -1.3856    2.4001    0.0000 C   0  0  0  0  0  0  0  0  0  0  0  0
    0.0001    3.2000    0.0000 C   0  0  0  0  0  0  0  0  0  0  0  0
    0.0001    4.8000    0.0000 H   0  0  0  0  0  0  0  0  0  0  0  0
    1.3856    2.4001    0.0000 C   0  0  0  0  0  0  0  0  0  0  0  0
    2.7712    3.2000    0.0000 C   0  0  0  0  0  0  0  0  0  0  0  0
    2.7712    4.8000    0.0000 H   0  0  0  0  0  0  0  0  0  0  0  0
    4.1569    2.3999    0.0000 C   0  0  0  0  0  0  0  0  0  0  0  0
    5.5426    3.2000    0.0000 H   0  0  0  0  0  0  0  0  0  0  0  0
    4.1569    0.8001    0.0000 C   0  0  0  0  0  0  0  0  0  0  0  0
    5.5426    0.0000    0.0000 H   0  0  0  0  0  0  0  0  0  0  0  0
    2.7712    0.0000    0.0000 C   0  0  0  0  0  0  0  0  0  0  0  0
    2.7712   -1.6000    0.0000 H   0  0  0  0  0  0  0  0  0  0  0  0
    1.3856    0.7999    0.0000 C   0  0  0  0  0  0  0  0  0  0  0  0
    0.0001    0.0000    0.0000 C   0  0  0  0  0  0  0  0  0  0  0  0
    0.0001   -1.6000    0.0000 C   0  0  0  0  0  0  0  0  0  0  0  0
   -0.0001   -3.2000    0.0000 H   0  0  0  0  0  0  0  0  0  0  0  0
    1.3856   -2.4001    0.0000 H   0  0  0  0  0  0  0  0  0  0  0  0
   -1.3856   -2.4001    0.0000 H   0  0  0  0  0  0  0  0  0  0  0  0
   -1.3856    0.7999    0.0000 C   0  0  0  0  0  0  0  0  0  0  0  0
   -2.7712    0.0000    0.0000 C   0  0  0  0  0  0  0  0  0  0  0  0
   -2.7712   -1.6000    0.0000 H   0  0  0  0  0  0  0  0  0  0  0  0
   -4.1569    0.8001    0.0000 C   0  0  0  0  0  0  0  0  0  0  0  0
   -5.5426    0.0000    0.0000 H   0  0  0  0  0  0  0  0  0  0  0  0
   -4.1569    2.3999    0.0000 C   0  0  0  0  0  0  0  0  0  0  0  0
   -5.5426    3.2000    0.0000 H   0  0  0  0  0  0  0  0  0  0  0  0
   -2.7712    3.2000    0.0000 C   0  0  0  0  0  0  0  0  0  0  0  0
   -2.7712    4.8000    0.0000 H   0  0  0  0  0  0  0  0  0  0  0  0
  1  2  2  0  0  0  0
  2  3  1  0  0  0  0
  2  4  1  0  0  0  0
  4  5  1  0  0  0  0
  5  6  1  0  0  0  0
  5  7  2  0  0  0  0
  7  8  1  0  0  0  0
  7  9  1  0  0  0  0
  9 10  1  0  0  0  0
  9 11  2  0  0  0  0
 11 12  1  0  0  0  0
 11 13  1  0  0  0  0
 13  4  2  0  0  0  0
 13 14  1  0  0  0  0
 14 15  1  0  0  0  0
 15 16  1  0  0  0  0
 15 17  1  0  0  0  0
 15 18  1  0  0  0  0
 14 19  2  0  0  0  0
 19  1  1  0  0  0  0
 19 20  1  0  0  0  0
 20 21  1  0  0  0  0
 20 22  2  0  0  0  0
 22 23  1  0  0  0  0
 22 24  1  0  0  0  0
 24 25  1  0  0  0  0
 24 26  2  0  0  0  0
 26  1  1  0  0  0  0
 26 27  1  0  0  0  0
M  END
> <ChemID>
100382

> <source_casrn>
779-02-2

> <CAS>
779-02-2

> <SMILES>
Cc1c2ccccc2cc2ccccc21

> <NAME>
9-METHYLANTHRACENE

> <preferred_name>
9-Methylanthracene

> <iupac>
9-METHYLANTHRACENE

> <MPID>
99656

> <dsstox_substance_id>
DTXSID3061134

> <Canonical_QSARr>
Cc1c2ccccc2cc2ccccc21

> <InChI_Code_QSARr>
InChI=1S/C15H12/c1-11-14-8-4-2-6-12(14)10-13-7-3-5-9-15(11)13/h2-10H,1H3

> <InChI Key_QSARr>
CPGPAVAKSZHMBP-UHFFFAOYSA-N

> <LogKOC>
4.81

$$$$
100386
  -INDIGO-08031722282D

 14 14  0  0  0  0  0  0  0  0999 V2000
    1.6000   -0.0000    0.0000 N   0  0  0  0  0  0  0  0  0  0  0  0
    2.4000    1.3856    0.0000 O   0  0  0  0  0  0  0  0  0  0  0  0
    2.4000   -1.3856    0.0000 O   0  0  0  0  0  0  0  0  0  0  0  0
    0.0000   -0.0000    0.0000 C   0  0  0  0  0  0  0  0  0  0  0  0
   -0.8000    1.3856    0.0000 C   0  0  0  0  0  0  0  0  0  0  0  0
    0.0000    2.7713    0.0000 H   0  0  0  0  0  0  0  0  0  0  0  0
   -2.4000    1.3856    0.0000 C   0  0  0  0  0  0  0  0  0  0  0  0
   -3.2000    2.7713    0.0000 Cl  0  0  0  0  0  0  0  0  0  0  0  0
   -3.2000   -0.0000    0.0000 C   0  0  0  0  0  0  0  0  0  0  0  0
   -4.8000   -0.0000    0.0000 Cl  0  0  0  0  0  0  0  0  0  0  0  0
   -2.4000   -1.3856    0.0000 C   0  0  0  0  0  0  0  0  0  0  0  0
   -3.2000   -2.7713    0.0000 Cl  0  0  0  0  0  0  0  0  0  0  0  0
   -0.8000   -1.3856    0.0000 C   0  0  0  0  0  0  0  0  0  0  0  0
    0.0000   -2.7713    0.0000 Cl  0  0  0  0  0  0  0  0  0  0  0  0
  1  2  2  0  0  0  0
  1  3  1  0  0  0  0
  1  4  1  0  0  0  0
  4  5  1  0  0  0  0
  5  6  1  0  0  0  0
  5  7  2  0  0  0  0
  7  8  1  0  0  0  0
  7  9  1  0  0  0  0
  9 10  1  0  0  0  0
  9 11  2  0  0  0  0
 11 12  1  0  0  0  0
 11 13  1  0  0  0  0
 13  4  2  0  0  0  0
 13 14  1  0  0  0  0
M  CHG  2   1   1   3  -1
M  END
> <ChemID>
100386

> <source_casrn>
879-39-0

> <CAS>
879-39-0

> <SMILES>
[O-][N+](=O)c1cc(Cl)c(Cl)c(Cl)c1Cl

> <NAME>
2,3,4,5-TETRACHLORONITROBENZENE

> <preferred_name>
2,3,4,5-Tetrachloronitrobenzene

> <iupac>
1,2,3,4-tetrachloro-5-nitrobenzene

> <MPID>
99660

> <dsstox_substance_id>
DTXSID5026097

> <Canonical_QSARr>
[O-][N+](=O)c1cc(Cl)c(Cl)c(Cl)c1Cl

> <InChI_Code_QSARr>
InChI=1S/C6HCl4NO2/c7-2-1-3(11(12)13)5(9)6(10)4(2)8/h1H

> <InChI Key_QSARr>
MTBYTWZDRVOMBR-UHFFFAOYSA-N

> <LogKOC>
4.23

$$$$
100390
  -INDIGO-08031722282D

 13 13  0  0  0  0  0  0  0  0999 V2000
    0.8000    1.3856    0.0000 O   0  0  0  0  0  0  0  0  0  0  0  0
    2.4000    1.3856    0.0000 H   0  0  0  0  0  0  0  0  0  0  0  0
   -0.0000   -0.0000    0.0000 C   0  0  0  0  0  0  0  0  0  0  0  0
    0.8000   -1.3857    0.0000 C   0  0  0  0  0  0  0  0  0  0  0  0
    2.4000   -1.3857    0.0000 H   0  0  0  0  0  0  0  0  0  0  0  0
   -0.0000   -2.7713    0.0000 C   0  0  0  0  0  0  0  0  0  0  0  0
    0.8000   -4.1569    0.0000 Cl  0  0  0  0  0  0  0  0  0  0  0  0
   -1.6000   -2.7713    0.0000 C   0  0  0  0  0  0  0  0  0  0  0  0
   -2.4000   -4.1569    0.0000 H   0  0  0  0  0  0  0  0  0  0  0  0
   -2.4000   -1.3856    0.0000 C   0  0  0  0  0  0  0  0  0  0  0  0
   -4.0000   -1.3856    0.0000 Cl  0  0  0  0  0  0  0  0  0  0  0  0
   -1.6000   -0.0000    0.0000 C   0  0  0  0  0  0  0  0  0  0  0  0
   -2.4000    1.3856    0.0000 Cl  0  0  0  0  0  0  0  0  0  0  0  0
  1  2  1  0  0  0  0
  1  3  1  0  0  0  0
  3  4  1  0  0  0  0
  4  5  1  0  0  0  0
  4  6  2  0  0  0  0
  6  7  1  0  0  0  0
  6  8  1  0  0  0  0
  8  9  1  0  0  0  0
  8 10  2  0  0  0  0
 10 11  1  0  0  0  0
 10 12  1  0  0  0  0
 12  3  2  0  0  0  0
 12 13  1  0  0  0  0
M  END
> <ChemID>
100390

> <source_casrn>
933-78-8

> <CAS>
933-78-8

> <SMILES>
Oc1cc(Cl)cc(Cl)c1Cl

> <NAME>
2,3,5-TRICHLOROPHENOL

> <preferred_name>
2,3,5-Trichlorophenol

> <iupac>
C6H3Cl3O

> <MPID>
99664

> <dsstox_substance_id>
DTXSID0026208

> <Canonical_QSARr>
Oc1cc(Cl)cc(Cl)c1Cl

> <InChI_Code_QSARr>
InChI=1S/C6H3Cl3O/c7-3-1-4(8)6(9)5(10)2-3/h1-2,10H

> <InChI Key_QSARr>
WWGQHTJIFOQAOC-UHFFFAOYSA-N

> <LogKOC>
3.61

$$$$
100394
  -INDIGO-08031722282D

 28 28  0  0  0  0  0  0  0  0999 V2000
   -1.3856    2.4000    0.0000 C   0  0  0  0  0  0  0  0  0  0  0  0
   -1.3856    4.0000    0.0000 H   0  0  0  0  0  0  0  0  0  0  0  0
   -2.7714    3.2001    0.0000 H   0  0  0  0  0  0  0  0  0  0  0  0
   -0.0001    3.2001    0.0000 H   0  0  0  0  0  0  0  0  0  0  0  0
   -1.3856    0.8000    0.0000 O   0  0  0  0  0  0  0  0  0  0  0  0
   -0.0001    0.0001    0.0000 P   0  0  0  0  0  0  0  0  0  0  0  0
   -1.3856   -0.8000    0.0000 O   0  0  0  0  0  0  0  0  0  0  0  0
   -2.7714    0.0001    0.0000 C   0  0  0  0  0  0  0  0  0  0  0  0
   -4.1569   -0.8000    0.0000 H   0  0  0  0  0  0  0  0  0  0  0  0
   -4.1569    0.8000    0.0000 H   0  0  0  0  0  0  0  0  0  0  0  0
   -2.7714   -1.5999    0.0000 H   0  0  0  0  0  0  0  0  0  0  0  0
   -0.0001   -1.5999    0.0000 S   0  0  0  0  0  0  0  0  0  0  0  0
    1.3856    0.8000    0.0000 S   0  0  0  0  0  0  0  0  0  0  0  0
    2.7712    0.0001    0.0000 C   0  0  0  0  0  0  0  0  0  0  0  0
    3.3835   -1.4782    0.0000 H   0  0  0  0  0  0  0  0  0  0  0  0
    2.1591   -1.4782    0.0000 H   0  0  0  0  0  0  0  0  0  0  0  0
    4.1569    0.8000    0.0000 S   0  0  0  0  0  0  0  0  0  0  0  0
    5.5425    0.0001    0.0000 C   0  0  0  0  0  0  0  0  0  0  0  0
    5.5425   -1.6001    0.0000 C   0  0  0  0  0  0  0  0  0  0  0  0
    4.1569   -2.4000    0.0000 H   0  0  0  0  0  0  0  0  0  0  0  0
    6.9282   -2.4000    0.0000 C   0  0  0  0  0  0  0  0  0  0  0  0
    6.9282   -4.0000    0.0000 H   0  0  0  0  0  0  0  0  0  0  0  0
    8.3139   -1.5999    0.0000 C   0  0  0  0  0  0  0  0  0  0  0  0
    9.6995   -2.4000    0.0000 Cl  0  0  0  0  0  0  0  0  0  0  0  0
    8.3139    0.0001    0.0000 C   0  0  0  0  0  0  0  0  0  0  0  0
    9.6995    0.8000    0.0000 H   0  0  0  0  0  0  0  0  0  0  0  0
    6.9282    0.8000    0.0000 C   0  0  0  0  0  0  0  0  0  0  0  0
    6.9282    2.4000    0.0000 H   0  0  0  0  0  0  0  0  0  0  0  0
  1  2  1  0  0  0  0
  1  3  1  0  0  0  0
  1  4  1  0  0  0  0
  1  5  1  0  0  0  0
  5  6  1  0  0  0  0
  6  7  1  0  0  0  0
  7  8  1  0  0  0  0
  8  9  1  0  0  0  0
  8 10  1  0  0  0  0
  8 11  1  0  0  0  0
  6 12  2  0  0  0  0
  6 13  1  0  0  0  0
 13 14  1  0  0  0  0
 14 15  1  0  0  0  0
 14 16  1  0  0  0  0
 14 17  1  0  0  0  0
 17 18  1  0  0  0  0
 18 19  1  0  0  0  0
 19 20  1  0  0  0  0
 19 21  2  0  0  0  0
 21 22  1  0  0  0  0
 21 23  1  0  0  0  0
 23 24  1  0  0  0  0
 23 25  2  0  0  0  0
 25 26  1  0  0  0  0
 25 27  1  0  0  0  0
 27 18  2  0  0  0  0
 27 28  1  0  0  0  0
M  END
> <ChemID>
100394

> <source_casrn>
953-17-3

> <CAS>
953-17-3

> <SMILES>
COP(=S)(OC)SCSc1ccc(Cl)cc1

> <NAME>
CARBOPHENOTHION-METHYL

> <preferred_name>
Methyl trithion

> <iupac>
S-{[(4-chlorophenyl)sulfanyl]methyl} O,O-dimethyl phosphorodithioate

> <MPID>
99668

> <dsstox_substance_id>
DTXSID3040275

> <Canonical_QSARr>
COP(=S)(OC)SCSc1ccc(Cl)cc1

> <InChI_Code_QSARr>
InChI=1S/C9H12ClO2PS3/c1-11-13(14,12-2)16-7-15-9-5-3-8(10)4-6-9/h3-6H,7H2,1-2H3

> <InChI Key_QSARr>
OUCCVXVYGFBXSV-UHFFFAOYSA-N

> <LogKOC>
4.67

$$$$
100399
  -INDIGO-08031722282D

 29 29  0  0  0  0  0  0  0  0999 V2000
    4.1570    0.8001    0.0000 N   0  0  0  0  0  0  0  0  0  0  0  0
    5.5426    0.0000    0.0000 C   0  0  0  0  0  0  0  0  0  0  0  0
    6.9283    0.8001    0.0000 N   0  0  0  0  0  0  0  0  0  0  0  0
    6.9283    2.4000    0.0000 H   0  0  0  0  0  0  0  0  0  0  0  0
    8.3138    0.0000    0.0000 C   0  0  0  0  0  0  0  0  0  0  0  0
    7.7015   -1.4783    0.0000 H   0  0  0  0  0  0  0  0  0  0  0  0
    8.9262   -1.4783    0.0000 H   0  0  0  0  0  0  0  0  0  0  0  0
    9.6996    0.8001    0.0000 C   0  0  0  0  0  0  0  0  0  0  0  0
   11.0851    1.6000    0.0000 H   0  0  0  0  0  0  0  0  0  0  0  0
   11.0851    0.0000    0.0000 H   0  0  0  0  0  0  0  0  0  0  0  0
    9.6996    2.4000    0.0000 H   0  0  0  0  0  0  0  0  0  0  0  0
    5.5426   -1.6000    0.0000 N   0  0  0  0  0  0  0  0  0  0  0  0
    4.1570   -2.4000    0.0000 C   0  0  0  0  0  0  0  0  0  0  0  0
    4.1568   -4.0000    0.0000 S   0  0  0  0  0  0  0  0  0  0  0  0
    2.7713   -4.8001    0.0000 C   0  0  0  0  0  0  0  0  0  0  0  0
    2.7713   -6.4000    0.0000 H   0  0  0  0  0  0  0  0  0  0  0  0
    1.3855   -5.6000    0.0000 H   0  0  0  0  0  0  0  0  0  0  0  0
    1.3855   -4.0000    0.0000 H   0  0  0  0  0  0  0  0  0  0  0  0
    2.7713   -1.6000    0.0000 N   0  0  0  0  0  0  0  0  0  0  0  0
    2.7713    0.0000    0.0000 C   0  0  0  0  0  0  0  0  0  0  0  0
    1.3857    0.8001    0.0000 N   0  0  0  0  0  0  0  0  0  0  0  0
    1.3857    2.4000    0.0000 H   0  0  0  0  0  0  0  0  0  0  0  0
    0.0000    0.0000    0.0000 C   0  0  0  0  0  0  0  0  0  0  0  0
   -0.6123   -1.4783    0.0000 H   0  0  0  0  0  0  0  0  0  0  0  0
    0.6123   -1.4783    0.0000 H   0  0  0  0  0  0  0  0  0  0  0  0
   -1.3855    0.8001    0.0000 C   0  0  0  0  0  0  0  0  0  0  0  0
   -2.7713    1.6000    0.0000 H   0  0  0  0  0  0  0  0  0  0  0  0
   -2.7713    0.0000    0.0000 H   0  0  0  0  0  0  0  0  0  0  0  0
   -1.3855    2.4000    0.0000 H   0  0  0  0  0  0  0  0  0  0  0  0
  1  2  1  0  0  0  0
  2  3  1  0  0  0  0
  3  4  1  0  0  0  0
  3  5  1  0  0  0  0
  5  6  1  0  0  0  0
  5  7  1  0  0  0  0
  5  8  1  0  0  0  0
  8  9  1  0  0  0  0
  8 10  1  0  0  0  0
  8 11  1  0  0  0  0
  2 12  2  0  0  0  0
 12 13  1  0  0  0  0
 13 14  1  0  0  0  0
 14 15  1  0  0  0  0
 15 16  1  0  0  0  0
 15 17  1  0  0  0  0
 15 18  1  0  0  0  0
 13 19  2  0  0  0  0
 19 20  1  0  0  0  0
 20  1  2  0  0  0  0
 20 21  1  0  0  0  0
 21 22  1  0  0  0  0
 21 23  1  0  0  0  0
 23 24  1  0  0  0  0
 23 25  1  0  0  0  0
 23 26  1  0  0  0  0
 26 27  1  0  0  0  0
 26 28  1  0  0  0  0
 26 29  1  0  0  0  0
M  END
> <ChemID>
100399

> <source_casrn>
1014-70-6

> <CAS>
1014-70-6

> <SMILES>
CCNc1nc(NCC)nc(SC)n1

> <NAME>
SIMETRYN

> <preferred_name>
Simetryn

> <iupac>
N,N'-diethyl-6-(methylsulfanyl)-1,3,5-triazine-2,4-diamine

> <MPID>
99673

> <dsstox_substance_id>
DTXSID8037596

> <Canonical_QSARr>
CSc1[n]c(NCC)[n]c(NCC)[n]1

> <InChI_Code_QSARr>
InChI=1S/C8H15N5S/c1-4-9-6-11-7(10-5-2)13-8(12-6)14-3/h4-5H2,1-3H3,(H2,9,10,11,12,13)

> <InChI Key_QSARr>
MGLWZSOBALDPEK-UHFFFAOYSA-N

> <LogKOC>
2.3

$$$$
100403
  -INDIGO-08031722282D

 24 25  0  0  0  0  0  0  0  0999 V2000
   -1.6000   -0.0000    0.0000 C   0  0  0  0  0  0  0  0  0  0  0  0
   -2.4000    1.3856    0.0000 C   0  0  0  0  0  0  0  0  0  0  0  0
   -1.6000    2.7713    0.0000 H   0  0  0  0  0  0  0  0  0  0  0  0
   -4.0001    1.3856    0.0000 C   0  0  0  0  0  0  0  0  0  0  0  0
   -4.8000    2.7713    0.0000 H   0  0  0  0  0  0  0  0  0  0  0  0
   -4.8000   -0.0000    0.0000 C   0  0  0  0  0  0  0  0  0  0  0  0
   -6.4000   -0.0000    0.0000 H   0  0  0  0  0  0  0  0  0  0  0  0
   -4.0001   -1.3857    0.0000 C   0  0  0  0  0  0  0  0  0  0  0  0
   -4.8000   -2.7713    0.0000 H   0  0  0  0  0  0  0  0  0  0  0  0
   -2.4000   -1.3857    0.0000 C   0  0  0  0  0  0  0  0  0  0  0  0
   -1.6000   -2.7713    0.0000 C   0  0  0  0  0  0  0  0  0  0  0  0
   -2.4000   -4.1569    0.0000 H   0  0  0  0  0  0  0  0  0  0  0  0
   -0.0000   -2.7713    0.0000 C   0  0  0  0  0  0  0  0  0  0  0  0
    0.7999   -4.1569    0.0000 H   0  0  0  0  0  0  0  0  0  0  0  0
    0.7999   -1.3857    0.0000 C   0  0  0  0  0  0  0  0  0  0  0  0
    2.4000   -1.3857    0.0000 H   0  0  0  0  0  0  0  0  0  0  0  0
   -0.0000   -0.0000    0.0000 C   0  0  0  0  0  0  0  0  0  0  0  0
    0.7999    1.3856    0.0000 C   0  0  0  0  0  0  0  0  0  0  0  0
   -0.4693    2.3596    0.0000 H   0  0  0  0  0  0  0  0  0  0  0  0
    0.5911    2.9720    0.0000 H   0  0  0  0  0  0  0  0  0  0  0  0
    2.4000    1.3856    0.0000 C   0  0  0  0  0  0  0  0  0  0  0  0
    4.0000    1.3856    0.0000 H   0  0  0  0  0  0  0  0  0  0  0  0
    3.2000    2.7713    0.0000 H   0  0  0  0  0  0  0  0  0  0  0  0
    3.2000   -0.0000    0.0000 H   0  0  0  0  0  0  0  0  0  0  0  0
  1  2  1  0  0  0  0
  2  3  1  0  0  0  0
  2  4  2  0  0  0  0
  4  5  1  0  0  0  0
  4  6  1  0  0  0  0
  6  7  1  0  0  0  0
  6  8  2  0  0  0  0
  8  9  1  0  0  0  0
  8 10  1  0  0  0  0
 10  1  1  0  0  0  0
 10 11  2  0  0  0  0
 11 12  1  0  0  0  0
 11 13  1  0  0  0  0
 13 14  1  0  0  0  0
 13 15  2  0  0  0  0
 15 16  1  0  0  0  0
 15 17  1  0  0  0  0
 17  1  2  0  0  0  0
 17 18  1  0  0  0  0
 18 19  1  0  0  0  0
 18 20  1  0  0  0  0
 18 21  1  0  0  0  0
 21 22  1  0  0  0  0
 21 23  1  0  0  0  0
 21 24  1  0  0  0  0
M  END
> <ChemID>
100403

> <source_casrn>
1127-76-0

> <CAS>
1127-76-0

> <SMILES>
CCc1cccc2ccccc12

> <NAME>
1-ETHYLNAPHTHALENE

> <preferred_name>


> <iupac>


> <MPID>
99677

> <dsstox_substance_id>
DTXSID10870852

> <Canonical_QSARr>
CCc1cccc2ccccc21

> <InChI_Code_QSARr>
InChI=1S/C12H12/c1-2-10-7-5-8-11-6-3-4-9-12(10)11/h3-9H,2H2,1H3

> <InChI Key_QSARr>
ZMXIYERNXPIYFR-UHFFFAOYSA-N

> <LogKOC>
3.78

$$$$
100407
  -INDIGO-08031722282D

 12 13  0  0  0  0  0  0  0  0999 V2000
    0.0000   -0.0000    0.0000 C   0  0  0  0  0  0  0  0  0  0  0  0
    0.2778   -1.5757    0.0000 H   0  0  0  0  0  0  0  0  0  0  0  0
   -1.6000   -0.0000    0.0000 C   0  0  0  0  0  0  0  0  0  0  0  0
   -1.8779   -1.5757    0.0000 H   0  0  0  0  0  0  0  0  0  0  0  0
   -3.1035    0.5473    0.0000 H   0  0  0  0  0  0  0  0  0  0  0  0
   -0.8001    1.3856    0.0000 O   0  0  0  0  0  0  0  0  0  0  0  0
    1.5035    0.5473    0.0000 C   0  0  0  0  0  0  0  0  0  0  0  0
    1.2257    2.1229    0.0000 H   0  0  0  0  0  0  0  0  0  0  0  0
    3.1035    0.5473    0.0000 C   0  0  0  0  0  0  0  0  0  0  0  0
    3.3814    2.1229    0.0000 H   0  0  0  0  0  0  0  0  0  0  0  0
    4.6070   -0.0000    0.0000 H   0  0  0  0  0  0  0  0  0  0  0  0
    2.3036   -0.8384    0.0000 O   0  0  0  0  0  0  0  0  0  0  0  0
  1  2  1  0  0  0  0
  1  3  1  0  0  0  0
  3  4  1  0  0  0  0
  3  5  1  0  0  0  0
  3  6  1  0  0  0  0
  6  1  1  0  0  0  0
  1  7  1  0  0  0  0
  7  8  1  0  0  0  0
  7  9  1  0  0  0  0
  9 10  1  0  0  0  0
  9 11  1  0  0  0  0
  9 12  1  0  0  0  0
 12  7  1  0  0  0  0
M  END
> <ChemID>
100407

> <source_casrn>
1464-53-5

> <CAS>
1464-53-5

> <SMILES>
O(C1C(O2)C2)C1

> <NAME>
DIEPOXYBUTANE

> <preferred_name>
2,2'-Bioxirane

> <iupac>
2,2'-bioxirane

> <MPID>
99681

> <dsstox_substance_id>
DTXSID0041307

> <Canonical_QSARr>
C1OC1C1CO1

> <InChI_Code_QSARr>
InChI=1S/C4H6O2/c1-3(5-1)4-2-6-4/h3-4H,1-2H2

> <InChI Key_QSARr>
ZFIVKAOQEXOYFY-UHFFFAOYSA-N

> <LogKOC>
0.4

$$$$
100411
  -INDIGO-08031722282D

 31 32  0  0  0  0  0  0  0  0999 V2000
   -7.3322   -0.5382    0.0000 O   0  0  0  0  0  0  0  0  0  0  0  0
   -6.5323    0.8474    0.0000 C   0  0  0  0  0  0  0  0  0  0  0  0
   -7.3322    2.2331    0.0000 N   0  0  0  0  0  0  0  0  0  0  0  0
   -6.5323    3.6187    0.0000 H   0  0  0  0  0  0  0  0  0  0  0  0
   -8.9322    2.2331    0.0000 C   0  0  0  0  0  0  0  0  0  0  0  0
  -10.5323    2.2331    0.0000 H   0  0  0  0  0  0  0  0  0  0  0  0
   -9.7324    3.6187    0.0000 H   0  0  0  0  0  0  0  0  0  0  0  0
   -9.7324    0.8474    0.0000 H   0  0  0  0  0  0  0  0  0  0  0  0
   -4.9322    0.8474    0.0000 O   0  0  0  0  0  0  0  0  0  0  0  0
   -4.1323   -0.5382    0.0000 C   0  0  0  0  0  0  0  0  0  0  0  0
   -4.9322   -1.9239    0.0000 C   0  0  0  0  0  0  0  0  0  0  0  0
   -6.5323   -1.9239    0.0000 H   0  0  0  0  0  0  0  0  0  0  0  0
   -4.1323   -3.3096    0.0000 C   0  0  0  0  0  0  0  0  0  0  0  0
   -4.9322   -4.6952    0.0000 H   0  0  0  0  0  0  0  0  0  0  0  0
   -2.5323   -3.3095    0.0000 C   0  0  0  0  0  0  0  0  0  0  0  0
   -1.7324   -4.6952    0.0000 H   0  0  0  0  0  0  0  0  0  0  0  0
   -1.7324   -1.9239    0.0000 C   0  0  0  0  0  0  0  0  0  0  0  0
   -2.5323   -0.5382    0.0000 C   0  0  0  0  0  0  0  0  0  0  0  0
   -1.4616    0.6508    0.0000 O   0  0  0  0  0  0  0  0  0  0  0  0
    0.0000   -0.0000    0.0000 C   0  0  0  0  0  0  0  0  0  0  0  0
   -0.1672   -1.5913    0.0000 C   0  0  0  0  0  0  0  0  0  0  0  0
    0.0000   -3.1825    0.0000 H   0  0  0  0  0  0  0  0  0  0  0  0
    1.3364   -2.1384    0.0000 H   0  0  0  0  0  0  0  0  0  0  0  0
    1.5651   -0.3327    0.0000 C   0  0  0  0  0  0  0  0  0  0  0  0
    3.1301   -0.6653    0.0000 H   0  0  0  0  0  0  0  0  0  0  0  0
    2.6356    0.8564    0.0000 H   0  0  0  0  0  0  0  0  0  0  0  0
    2.3162   -1.7454    0.0000 H   0  0  0  0  0  0  0  0  0  0  0  0
    0.4943    1.5217    0.0000 C   0  0  0  0  0  0  0  0  0  0  0  0
    0.9888    3.0434    0.0000 H   0  0  0  0  0  0  0  0  0  0  0  0
   -0.5762    2.7107    0.0000 H   0  0  0  0  0  0  0  0  0  0  0  0
    2.0596    1.8544    0.0000 H   0  0  0  0  0  0  0  0  0  0  0  0
  1  2  2  0  0  0  0
  2  3  1  0  0  0  0
  3  4  1  0  0  0  0
  3  5  1  0  0  0  0
  5  6  1  0  0  0  0
  5  7  1  0  0  0  0
  5  8  1  0  0  0  0
  2  9  1  0  0  0  0
  9 10  1  0  0  0  0
 10 11  1  0  0  0  0
 11 12  1  0  0  0  0
 11 13  2  0  0  0  0
 13 14  1  0  0  0  0
 13 15  1  0  0  0  0
 15 16  1  0  0  0  0
 15 17  2  0  0  0  0
 17 18  1  0  0  0  0
 18 10  2  0  0  0  0
 18 19  1  0  0  0  0
 19 20  1  0  0  0  0
 20 21  1  0  0  0  0
 21 17  1  0  0  0  0
 21 22  1  0  0  0  0
 21 23  1  0  0  0  0
 20 24  1  0  0  0  0
 24 25  1  0  0  0  0
 24 26  1  0  0  0  0
 24 27  1  0  0  0  0
 20 28  1  0  0  0  0
 28 29  1  0  0  0  0
 28 30  1  0  0  0  0
 28 31  1  0  0  0  0
M  END
> <ChemID>
100411

> <source_casrn>
1563-66-2

> <CAS>
1563-66-2

> <SMILES>
CC1(C)Cc2cccc(OC(=O)NC)c2O1

> <NAME>
CARBOFURAN

> <preferred_name>
Carbofuran

> <iupac>
2,2-dimethyl-2,3-dihydro-1-benzofuran-7-yl methylcarbamate

> <MPID>
99685

> <dsstox_substance_id>
DTXSID9020249

> <Canonical_QSARr>
CC1(C)Cc2cccc(OC(=O)NC)c2O1

> <InChI_Code_QSARr>
InChI=1S/C12H15NO3/c1-12(2)7-8-5-4-6-9(10(8)16-12)15-11(14)13-3/h4-6H,7H2,1-3H3,(H,13,14)

> <InChI Key_QSARr>
DUEPRVBVGDRKAG-UHFFFAOYSA-N

> <LogKOC>
1.75

$$$$
100415
  -INDIGO-08031722282D

 35 35  0  0  0  0  0  0  0  0999 V2000
    2.7713   -0.0000    0.0000 C   0  0  0  0  0  0  0  0  0  0  0  0
    4.1570    0.8000    0.0000 N   0  0  0  0  0  0  0  0  0  0  0  0
    5.5426   -0.0000    0.0000 C   0  0  0  0  0  0  0  0  0  0  0  0
    6.9283    0.8000    0.0000 N   0  0  0  0  0  0  0  0  0  0  0  0
    6.9283    2.4000    0.0000 H   0  0  0  0  0  0  0  0  0  0  0  0
    8.3138   -0.0000    0.0000 C   0  0  0  0  0  0  0  0  0  0  0  0
    7.5138   -1.3856    0.0000 H   0  0  0  0  0  0  0  0  0  0  0  0
    9.6996   -0.8000    0.0000 C   0  0  0  0  0  0  0  0  0  0  0  0
   11.0851   -1.6000    0.0000 H   0  0  0  0  0  0  0  0  0  0  0  0
   11.0851   -0.0000    0.0000 H   0  0  0  0  0  0  0  0  0  0  0  0
    9.6996   -2.4000    0.0000 H   0  0  0  0  0  0  0  0  0  0  0  0
    9.1139    1.3857    0.0000 C   0  0  0  0  0  0  0  0  0  0  0  0
    9.9138    2.7713    0.0000 H   0  0  0  0  0  0  0  0  0  0  0  0
   10.7138    1.3857    0.0000 H   0  0  0  0  0  0  0  0  0  0  0  0
    8.3138    2.7713    0.0000 H   0  0  0  0  0  0  0  0  0  0  0  0
    5.5426   -1.6000    0.0000 N   0  0  0  0  0  0  0  0  0  0  0  0
    4.1570   -2.4000    0.0000 C   0  0  0  0  0  0  0  0  0  0  0  0
    4.1570   -3.9999    0.0000 O   0  0  0  0  0  0  0  0  0  0  0  0
    5.5426   -4.8000    0.0000 C   0  0  0  0  0  0  0  0  0  0  0  0
    5.5426   -6.4000    0.0000 H   0  0  0  0  0  0  0  0  0  0  0  0
    6.9283   -5.5999    0.0000 H   0  0  0  0  0  0  0  0  0  0  0  0
    4.1570   -5.5999    0.0000 H   0  0  0  0  0  0  0  0  0  0  0  0
    2.7713   -1.6000    0.0000 N   0  0  0  0  0  0  0  0  0  0  0  0
    1.3857    0.8000    0.0000 N   0  0  0  0  0  0  0  0  0  0  0  0
    1.3855    2.4000    0.0000 H   0  0  0  0  0  0  0  0  0  0  0  0
    0.0000   -0.0000    0.0000 C   0  0  0  0  0  0  0  0  0  0  0  0
    0.8001   -1.3856    0.0000 H   0  0  0  0  0  0  0  0  0  0  0  0
   -1.3855   -0.8000    0.0000 C   0  0  0  0  0  0  0  0  0  0  0  0
   -2.7713   -1.6000    0.0000 H   0  0  0  0  0  0  0  0  0  0  0  0
   -2.7713   -0.0000    0.0000 H   0  0  0  0  0  0  0  0  0  0  0  0
   -1.3857   -2.4000    0.0000 H   0  0  0  0  0  0  0  0  0  0  0  0
   -0.8001    1.3857    0.0000 C   0  0  0  0  0  0  0  0  0  0  0  0
   -1.5999    2.7713    0.0000 H   0  0  0  0  0  0  0  0  0  0  0  0
   -2.4000    1.3857    0.0000 H   0  0  0  0  0  0  0  0  0  0  0  0
    0.0000    2.7713    0.0000 H   0  0  0  0  0  0  0  0  0  0  0  0
  1  2  1  0  0  0  0
  2  3  2  0  0  0  0
  3  4  1  0  0  0  0
  4  5  1  0  0  0  0
  4  6  1  0  0  0  0
  6  7  1  0  0  0  0
  6  8  1  0  0  0  0
  8  9  1  0  0  0  0
  8 10  1  0  0  0  0
  8 11  1  0  0  0  0
  6 12  1  0  0  0  0
 12 13  1  0  0  0  0
 12 14  1  0  0  0  0
 12 15  1  0  0  0  0
  3 16  1  0  0  0  0
 16 17  2  0  0  0  0
 17 18  1  0  0  0  0
 18 19  1  0  0  0  0
 19 20  1  0  0  0  0
 19 21  1  0  0  0  0
 19 22  1  0  0  0  0
 17 23  1  0  0  0  0
 23  1  2  0  0  0  0
  1 24  1  0  0  0  0
 24 25  1  0  0  0  0
 24 26  1  0  0  0  0
 26 27  1  0  0  0  0
 26 28  1  0  0  0  0
 28 29  1  0  0  0  0
 28 30  1  0  0  0  0
 28 31  1  0  0  0  0
 26 32  1  0  0  0  0
 32 33  1  0  0  0  0
 32 34  1  0  0  0  0
 32 35  1  0  0  0  0
M  END
> <ChemID>
100415

> <source_casrn>
1610-18-0

> <CAS>
1610-18-0

> <SMILES>
COc1[n]c(NC(C)C)[n]c(NC(C)C)[n]1

> <NAME>
PROMETON

> <preferred_name>
Prometon

> <iupac>
6-methoxy-N,N'-di(propan-2-yl)-1,3,5-triazine-2,4-diamine

> <MPID>
99689

> <dsstox_substance_id>
DTXSID6022341

> <Canonical_QSARr>
COc1[n]c(NC(C)C)[n]c(NC(C)C)[n]1

> <InChI_Code_QSARr>
InChI=1S/C10H19N5O/c1-6(2)11-8-13-9(12-7(3)4)15-10(14-8)16-5/h6-7H,1-5H3,(H2,11,12,13,14,15)

> <InChI Key_QSARr>
ISEUFVQQFVOBCY-UHFFFAOYSA-N

> <LogKOC>
2.6

$$$$
100419
  -INDIGO-08031722282D

 37 37  0  0  0  0  0  0  0  0999 V2000
    5.5427   -0.0000    0.0000 C   0  0  0  0  0  0  0  0  0  0  0  0
    5.5427   -1.6000    0.0000 O   0  0  0  0  0  0  0  0  0  0  0  0
    6.9283    0.8000    0.0000 O   0  0  0  0  0  0  0  0  0  0  0  0
    8.3139   -0.0000    0.0000 C   0  0  0  0  0  0  0  0  0  0  0  0
    8.3139   -1.6000    0.0000 C   0  0  0  0  0  0  0  0  0  0  0  0
    6.9283   -2.4000    0.0000 Br  0  0  0  0  0  0  0  0  0  0  0  0
    9.6995   -2.4000    0.0000 C   0  0  0  0  0  0  0  0  0  0  0  0
    9.6995   -4.0000    0.0000 H   0  0  0  0  0  0  0  0  0  0  0  0
   11.0852   -1.6000    0.0000 C   0  0  0  0  0  0  0  0  0  0  0  0
   12.4708   -2.4000    0.0000 C   0  0  0  0  0  0  0  0  0  0  0  0
   13.8564   -3.2000    0.0000 N   0  0  0  0  0  0  0  0  0  0  0  0
   11.0852   -0.0000    0.0000 C   0  0  0  0  0  0  0  0  0  0  0  0
   12.4708    0.8000    0.0000 H   0  0  0  0  0  0  0  0  0  0  0  0
    9.6995    0.8000    0.0000 C   0  0  0  0  0  0  0  0  0  0  0  0
    9.6995    2.4000    0.0000 Br  0  0  0  0  0  0  0  0  0  0  0  0
    4.1571    0.8000    0.0000 C   0  0  0  0  0  0  0  0  0  0  0  0
    3.5446    2.2782    0.0000 H   0  0  0  0  0  0  0  0  0  0  0  0
    4.7692    2.2782    0.0000 H   0  0  0  0  0  0  0  0  0  0  0  0
    2.7712   -0.0000    0.0000 C   0  0  0  0  0  0  0  0  0  0  0  0
    3.3836   -1.4782    0.0000 H   0  0  0  0  0  0  0  0  0  0  0  0
    2.1590   -1.4782    0.0000 H   0  0  0  0  0  0  0  0  0  0  0  0
    1.3855    0.8000    0.0000 C   0  0  0  0  0  0  0  0  0  0  0  0
    0.7734    2.2782    0.0000 H   0  0  0  0  0  0  0  0  0  0  0  0
    1.9980    2.2782    0.0000 H   0  0  0  0  0  0  0  0  0  0  0  0
   -0.0001   -0.0000    0.0000 C   0  0  0  0  0  0  0  0  0  0  0  0
    0.6124   -1.4782    0.0000 H   0  0  0  0  0  0  0  0  0  0  0  0
   -0.6122   -1.4782    0.0000 H   0  0  0  0  0  0  0  0  0  0  0  0
   -1.3857    0.8000    0.0000 C   0  0  0  0  0  0  0  0  0  0  0  0
   -1.9979    2.2782    0.0000 H   0  0  0  0  0  0  0  0  0  0  0  0
   -0.7733    2.2782    0.0000 H   0  0  0  0  0  0  0  0  0  0  0  0
   -2.7713   -0.0000    0.0000 C   0  0  0  0  0  0  0  0  0  0  0  0
   -2.1589   -1.4782    0.0000 H   0  0  0  0  0  0  0  0  0  0  0  0
   -3.3835   -1.4782    0.0000 H   0  0  0  0  0  0  0  0  0  0  0  0
   -4.1569    0.8000    0.0000 C   0  0  0  0  0  0  0  0  0  0  0  0
   -5.5426    1.6000    0.0000 H   0  0  0  0  0  0  0  0  0  0  0  0
   -5.5426   -0.0000    0.0000 H   0  0  0  0  0  0  0  0  0  0  0  0
   -4.1569    2.4000    0.0000 H   0  0  0  0  0  0  0  0  0  0  0  0
  1  2  2  0  0  0  0
  1  3  1  0  0  0  0
  3  4  1  0  0  0  0
  4  5  1  0  0  0  0
  5  6  1  0  0  0  0
  5  7  2  0  0  0  0
  7  8  1  0  0  0  0
  7  9  1  0  0  0  0
  9 10  1  0  0  0  0
 10 11  3  0  0  0  0
  9 12  2  0  0  0  0
 12 13  1  0  0  0  0
 12 14  1  0  0  0  0
 14  4  2  0  0  0  0
 14 15  1  0  0  0  0
  1 16  1  0  0  0  0
 16 17  1  0  0  0  0
 16 18  1  0  0  0  0
 16 19  1  0  0  0  0
 19 20  1  0  0  0  0
 19 21  1  0  0  0  0
 19 22  1  0  0  0  0
 22 23  1  0  0  0  0
 22 24  1  0  0  0  0
 22 25  1  0  0  0  0
 25 26  1  0  0  0  0
 25 27  1  0  0  0  0
 25 28  1  0  0  0  0
 28 29  1  0  0  0  0
 28 30  1  0  0  0  0
 28 31  1  0  0  0  0
 31 32  1  0  0  0  0
 31 33  1  0  0  0  0
 31 34  1  0  0  0  0
 34 35  1  0  0  0  0
 34 36  1  0  0  0  0
 34 37  1  0  0  0  0
M  END
> <ChemID>
100419

> <source_casrn>
1689-99-2

> <CAS>
1689-99-2

> <SMILES>
CCCCCCCC(=O)Oc1c(Br)cc(cc1Br)C#N

> <NAME>
BROMOXYNIL OCTANOATE

> <preferred_name>
Bromoxynil octanoate

> <iupac>
2,6-dibromo-4-cyanophenyl octanoate

> <MPID>
99693

> <dsstox_substance_id>
DTXSID7023932

> <Canonical_QSARr>
CCCCCCCC(=O)Oc1c(Br)cc(cc1Br)C#N

> <InChI_Code_QSARr>
InChI=1S/C15H17Br2NO2/c1-2-3-4-5-6-7-14(19)20-15-12(16)8-11(10-18)9-13(15)17/h8-9H,2-7H2,1H3

> <InChI Key_QSARr>
DQKWXTIYGWPGOO-UHFFFAOYSA-N

> <LogKOC>
4.0

$$$$
100423
  -INDIGO-08031722282D

 25 25  0  0  0  0  0  0  0  0999 V2000
   -2.3999   -1.3856    0.0000 C   0  0  0  0  0  0  0  0  0  0  0  0
   -1.5999   -2.7713    0.0000 O   0  0  0  0  0  0  0  0  0  0  0  0
   -3.9999   -1.3856    0.0000 N   0  0  0  0  0  0  0  0  0  0  0  0
   -4.8000    0.0000    0.0000 O   0  0  0  0  0  0  0  0  0  0  0  0
   -6.4000    0.0000    0.0000 C   0  0  0  0  0  0  0  0  0  0  0  0
   -8.0000    0.0000    0.0000 H   0  0  0  0  0  0  0  0  0  0  0  0
   -7.2000    1.3856    0.0000 H   0  0  0  0  0  0  0  0  0  0  0  0
   -5.6000    1.3856    0.0000 H   0  0  0  0  0  0  0  0  0  0  0  0
   -4.8000   -2.7713    0.0000 C   0  0  0  0  0  0  0  0  0  0  0  0
   -5.6000   -4.1569    0.0000 H   0  0  0  0  0  0  0  0  0  0  0  0
   -6.4000   -2.7713    0.0000 H   0  0  0  0  0  0  0  0  0  0  0  0
   -3.9999   -4.1569    0.0000 H   0  0  0  0  0  0  0  0  0  0  0  0
   -1.5999    0.0000    0.0000 N   0  0  0  0  0  0  0  0  0  0  0  0
   -2.3999    1.3856    0.0000 H   0  0  0  0  0  0  0  0  0  0  0  0
   -0.0001    0.0000    0.0000 C   0  0  0  0  0  0  0  0  0  0  0  0
    0.7999    1.3856    0.0000 C   0  0  0  0  0  0  0  0  0  0  0  0
   -0.0001    2.7713    0.0000 H   0  0  0  0  0  0  0  0  0  0  0  0
    2.4000    1.3856    0.0000 C   0  0  0  0  0  0  0  0  0  0  0  0
    3.2000    2.7713    0.0000 H   0  0  0  0  0  0  0  0  0  0  0  0
    3.2000    0.0000    0.0000 C   0  0  0  0  0  0  0  0  0  0  0  0
    4.8000    0.0000    0.0000 Cl  0  0  0  0  0  0  0  0  0  0  0  0
    2.4000   -1.3856    0.0000 C   0  0  0  0  0  0  0  0  0  0  0  0
    3.2000   -2.7713    0.0000 H   0  0  0  0  0  0  0  0  0  0  0  0
    0.7999   -1.3856    0.0000 C   0  0  0  0  0  0  0  0  0  0  0  0
   -0.0001   -2.7713    0.0000 H   0  0  0  0  0  0  0  0  0  0  0  0
  1  2  2  0  0  0  0
  1  3  1  0  0  0  0
  3  4  1  0  0  0  0
  4  5  1  0  0  0  0
  5  6  1  0  0  0  0
  5  7  1  0  0  0  0
  5  8  1  0  0  0  0
  3  9  1  0  0  0  0
  9 10  1  0  0  0  0
  9 11  1  0  0  0  0
  9 12  1  0  0  0  0
  1 13  1  0  0  0  0
 13 14  1  0  0  0  0
 13 15  1  0  0  0  0
 15 16  1  0  0  0  0
 16 17  1  0  0  0  0
 16 18  2  0  0  0  0
 18 19  1  0  0  0  0
 18 20  1  0  0  0  0
 20 21  1  0  0  0  0
 20 22  2  0  0  0  0
 22 23  1  0  0  0  0
 22 24  1  0  0  0  0
 24 15  2  0  0  0  0
 24 25  1  0  0  0  0
M  END
> <ChemID>
100423

> <source_casrn>
1746-81-2

> <CAS>
1746-81-2

> <SMILES>
CN(OC)C(=O)Nc1ccc(Cl)cc1

> <NAME>
MONOLINURON

> <preferred_name>
Monolinuron

> <iupac>
3-(4-chlorophenyl)-1-methoxy-1-methylurea

> <MPID>
99697

> <dsstox_substance_id>
DTXSID0037576

> <Canonical_QSARr>
CN(OC)C(=O)Nc1ccc(Cl)cc1

> <InChI_Code_QSARr>
InChI=1S/C9H11ClN2O2/c1-12(14-2)9(13)11-8-5-3-7(10)4-6-8/h3-6H,1-2H3,(H,11,13)

> <InChI Key_QSARr>
LKJPSUCKSLORMF-UHFFFAOYSA-N

> <LogKOC>
2.1

$$$$
100427
  -INDIGO-08031722282D

 24 24  0  0  0  0  0  0  0  0999 V2000
   -0.0000    0.0000    0.0000 C   0  0  0  0  0  0  0  0  0  0  0  0
   -0.8001    1.3856    0.0000 C   0  0  0  0  0  0  0  0  0  0  0  0
   -0.0000    2.7713    0.0000 Cl  0  0  0  0  0  0  0  0  0  0  0  0
   -2.3999    1.3856    0.0000 C   0  0  0  0  0  0  0  0  0  0  0  0
   -3.2000    2.7713    0.0000 Cl  0  0  0  0  0  0  0  0  0  0  0  0
   -3.2000    0.0000    0.0000 C   0  0  0  0  0  0  0  0  0  0  0  0
   -4.8000   -0.0000    0.0000 C   0  0  0  0  0  0  0  0  0  0  0  0
   -5.6001   -1.3856    0.0000 O   0  0  0  0  0  0  0  0  0  0  0  0
   -5.6001    1.3856    0.0000 O   0  0  0  0  0  0  0  0  0  0  0  0
   -7.1999    1.3856    0.0000 C   0  0  0  0  0  0  0  0  0  0  0  0
   -8.8000    1.3856    0.0000 H   0  0  0  0  0  0  0  0  0  0  0  0
   -8.0000    2.7713    0.0000 H   0  0  0  0  0  0  0  0  0  0  0  0
   -8.0000   -0.0000    0.0000 H   0  0  0  0  0  0  0  0  0  0  0  0
   -2.3999   -1.3856    0.0000 C   0  0  0  0  0  0  0  0  0  0  0  0
   -3.2000   -2.7713    0.0000 Cl  0  0  0  0  0  0  0  0  0  0  0  0
   -0.8001   -1.3856    0.0000 C   0  0  0  0  0  0  0  0  0  0  0  0
   -0.0000   -2.7713    0.0000 Cl  0  0  0  0  0  0  0  0  0  0  0  0
    1.6000   -0.0000    0.0000 C   0  0  0  0  0  0  0  0  0  0  0  0
    2.4001    1.3856    0.0000 O   0  0  0  0  0  0  0  0  0  0  0  0
    2.4001   -1.3856    0.0000 O   0  0  0  0  0  0  0  0  0  0  0  0
    3.9999   -1.3856    0.0000 C   0  0  0  0  0  0  0  0  0  0  0  0
    5.6000   -1.3856    0.0000 H   0  0  0  0  0  0  0  0  0  0  0  0
    4.8000   -2.7713    0.0000 H   0  0  0  0  0  0  0  0  0  0  0  0
    4.8000   -0.0000    0.0000 H   0  0  0  0  0  0  0  0  0  0  0  0
  1  2  1  0  0  0  0
  2  3  1  0  0  0  0
  2  4  2  0  0  0  0
  4  5  1  0  0  0  0
  4  6  1  0  0  0  0
  6  7  1  0  0  0  0
  7  8  2  0  0  0  0
  7  9  1  0  0  0  0
  9 10  1  0  0  0  0
 10 11  1  0  0  0  0
 10 12  1  0  0  0  0
 10 13  1  0  0  0  0
  6 14  2  0  0  0  0
 14 15  1  0  0  0  0
 14 16  1  0  0  0  0
 16  1  2  0  0  0  0
 16 17  1  0  0  0  0
  1 18  1  0  0  0  0
 18 19  2  0  0  0  0
 18 20  1  0  0  0  0
 20 21  1  0  0  0  0
 21 22  1  0  0  0  0
 21 23  1  0  0  0  0
 21 24  1  0  0  0  0
M  END
> <ChemID>
100427

> <source_casrn>
1861-32-1

> <CAS>
1861-32-1

> <SMILES>
COC(=O)c1c(Cl)c(Cl)c(c(Cl)c1Cl)C(=O)OC

> <NAME>
DIMETHYL TETRACHLOROTEREPHTHALATE

> <preferred_name>
Chlorthal-dimethyl

> <iupac>
dimethyl 2,3,5,6-tetrachlorobenzene-1,4-dicarboxylate

> <MPID>
99701

> <dsstox_substance_id>
DTXSID0024000

> <Canonical_QSARr>
COC(=O)c1c(Cl)c(Cl)c(c(Cl)c1Cl)C(=O)OC

> <InChI_Code_QSARr>
InChI=1S/C10H6Cl4O4/c1-17-9(15)3-5(11)7(13)4(10(16)18-2)8(14)6(3)12/h1-2H3

> <InChI Key_QSARr>
NPOJQCVWMSKXDN-UHFFFAOYSA-N

> <LogKOC>
3.7

$$$$
100432
  -INDIGO-08031722282D

 34 34  0  0  0  0  0  0  0  0999 V2000
    5.5426    1.6000    0.0000 N   0  0  0  0  0  0  0  0  0  0  0  0
    5.5426   -0.0000    0.0000 C   0  0  0  0  0  0  0  0  0  0  0  0
    6.9283   -0.8000    0.0000 N   0  0  0  0  0  0  0  0  0  0  0  0
    8.3138   -0.0000    0.0000 C   0  0  0  0  0  0  0  0  0  0  0  0
    8.9262    1.4782    0.0000 H   0  0  0  0  0  0  0  0  0  0  0  0
    7.7015    1.4782    0.0000 H   0  0  0  0  0  0  0  0  0  0  0  0
    9.6996   -0.8000    0.0000 C   0  0  0  0  0  0  0  0  0  0  0  0
   11.0851   -0.0000    0.0000 H   0  0  0  0  0  0  0  0  0  0  0  0
   11.0851   -1.6000    0.0000 H   0  0  0  0  0  0  0  0  0  0  0  0
    9.6996    0.8000    0.0000 H   0  0  0  0  0  0  0  0  0  0  0  0
    6.9283   -2.4000    0.0000 C   0  0  0  0  0  0  0  0  0  0  0  0
    5.3419   -2.6088    0.0000 H   0  0  0  0  0  0  0  0  0  0  0  0
    5.9542   -3.6694    0.0000 H   0  0  0  0  0  0  0  0  0  0  0  0
    8.3138   -3.2001    0.0000 C   0  0  0  0  0  0  0  0  0  0  0  0
    8.3138   -4.8000    0.0000 H   0  0  0  0  0  0  0  0  0  0  0  0
    9.6994   -4.0000    0.0000 H   0  0  0  0  0  0  0  0  0  0  0  0
    6.9281   -4.0000    0.0000 H   0  0  0  0  0  0  0  0  0  0  0  0
    4.1570   -0.8000    0.0000 N   0  0  0  0  0  0  0  0  0  0  0  0
    2.7713   -0.0000    0.0000 C   0  0  0  0  0  0  0  0  0  0  0  0
    1.3855   -0.8000    0.0000 N   0  0  0  0  0  0  0  0  0  0  0  0
    1.3855   -2.4000    0.0000 H   0  0  0  0  0  0  0  0  0  0  0  0
    0.0000   -0.0000    0.0000 C   0  0  0  0  0  0  0  0  0  0  0  0
    0.8001    1.3856    0.0000 H   0  0  0  0  0  0  0  0  0  0  0  0
   -1.3857    0.8000    0.0000 C   0  0  0  0  0  0  0  0  0  0  0  0
   -2.7713    1.6000    0.0000 H   0  0  0  0  0  0  0  0  0  0  0  0
   -2.7713   -0.0000    0.0000 H   0  0  0  0  0  0  0  0  0  0  0  0
   -1.3857    2.4001    0.0000 H   0  0  0  0  0  0  0  0  0  0  0  0
   -0.8001   -1.3857    0.0000 C   0  0  0  0  0  0  0  0  0  0  0  0
   -1.5999   -2.7713    0.0000 H   0  0  0  0  0  0  0  0  0  0  0  0
   -2.4000   -1.3857    0.0000 H   0  0  0  0  0  0  0  0  0  0  0  0
    0.0000   -2.7713    0.0000 H   0  0  0  0  0  0  0  0  0  0  0  0
    2.7713    1.6000    0.0000 N   0  0  0  0  0  0  0  0  0  0  0  0
    4.1570    2.4001    0.0000 C   0  0  0  0  0  0  0  0  0  0  0  0
    4.1570    4.0000    0.0000 Cl  0  0  0  0  0  0  0  0  0  0  0  0
  1  2  1  0  0  0  0
  2  3  1  0  0  0  0
  3  4  1  0  0  0  0
  4  5  1  0  0  0  0
  4  6  1  0  0  0  0
  4  7  1  0  0  0  0
  7  8  1  0  0  0  0
  7  9  1  0  0  0  0
  7 10  1  0  0  0  0
  3 11  1  0  0  0  0
 11 12  1  0  0  0  0
 11 13  1  0  0  0  0
 11 14  1  0  0  0  0
 14 15  1  0  0  0  0
 14 16  1  0  0  0  0
 14 17  1  0  0  0  0
  2 18  2  0  0  0  0
 18 19  1  0  0  0  0
 19 20  1  0  0  0  0
 20 21  1  0  0  0  0
 20 22  1  0  0  0  0
 22 23  1  0  0  0  0
 22 24  1  0  0  0  0
 24 25  1  0  0  0  0
 24 26  1  0  0  0  0
 24 27  1  0  0  0  0
 22 28  1  0  0  0  0
 28 29  1  0  0  0  0
 28 30  1  0  0  0  0
 28 31  1  0  0  0  0
 19 32  2  0  0  0  0
 32 33  1  0  0  0  0
 33  1  2  0  0  0  0
 33 34  1  0  0  0  0
M  END
> <ChemID>
100432

> <source_casrn>
1912-25-0

> <CAS>
1912-25-0

> <SMILES>
CC(C)Nc1[n]c([n]c(Cl)[n]1)N(CC)CC

> <NAME>
IPAZINE

> <preferred_name>
Ipazine

> <iupac>
6-chloro-N,N-diethyl-N'-(propan-2-yl)-1,3,5-triazine-2,4-diamine

> <MPID>
99705

> <dsstox_substance_id>
DTXSID8042056

> <Canonical_QSARr>
CC(C)Nc1[n]c([n]c(Cl)[n]1)N(CC)CC

> <InChI_Code_QSARr>
InChI=1S/C10H18ClN5/c1-5-16(6-2)10-14-8(11)13-9(15-10)12-7(3)4/h7H,5-6H2,1-4H3,(H,12,13,14,15)

> <InChI Key_QSARr>
OWYWGLHRNBIFJP-UHFFFAOYSA-N

> <LogKOC>
2.91

$$$$
100436
  -INDIGO-08031722282D

 16 16  0  0  0  0  0  0  0  0999 V2000
    0.0001   -0.0000    0.0000 C   0  0  0  0  0  0  0  0  0  0  0  0
    0.0001   -1.6000    0.0000 C   0  0  0  0  0  0  0  0  0  0  0  0
    1.3856   -2.4000    0.0000 Cl  0  0  0  0  0  0  0  0  0  0  0  0
   -1.3856   -2.4000    0.0000 C   0  0  0  0  0  0  0  0  0  0  0  0
   -1.3856   -4.0000    0.0000 H   0  0  0  0  0  0  0  0  0  0  0  0
   -2.7712   -1.6000    0.0000 C   0  0  0  0  0  0  0  0  0  0  0  0
   -4.1569   -2.4000    0.0000 H   0  0  0  0  0  0  0  0  0  0  0  0
   -2.7712   -0.0000    0.0000 C   0  0  0  0  0  0  0  0  0  0  0  0
   -4.1569    0.8000    0.0000 H   0  0  0  0  0  0  0  0  0  0  0  0
   -1.3856    0.8000    0.0000 C   0  0  0  0  0  0  0  0  0  0  0  0
   -1.3856    2.4000    0.0000 Cl  0  0  0  0  0  0  0  0  0  0  0  0
    1.3856    0.8000    0.0000 C   0  0  0  0  0  0  0  0  0  0  0  0
    1.3856    2.4000    0.0000 S   0  0  0  0  0  0  0  0  0  0  0  0
    2.7713   -0.0000    0.0000 N   0  0  0  0  0  0  0  0  0  0  0  0
    4.1569    0.8000    0.0000 H   0  0  0  0  0  0  0  0  0  0  0  0
    2.7713   -1.6000    0.0000 H   0  0  0  0  0  0  0  0  0  0  0  0
  1  2  1  0  0  0  0
  2  3  1  0  0  0  0
  2  4  2  0  0  0  0
  4  5  1  0  0  0  0
  4  6  1  0  0  0  0
  6  7  1  0  0  0  0
  6  8  2  0  0  0  0
  8  9  1  0  0  0  0
  8 10  1  0  0  0  0
 10  1  2  0  0  0  0
 10 11  1  0  0  0  0
  1 12  1  0  0  0  0
 12 13  2  0  0  0  0
 12 14  1  0  0  0  0
 14 15  1  0  0  0  0
 14 16  1  0  0  0  0
M  END
> <ChemID>
100436

> <source_casrn>
1918-13-4

> <CAS>
1918-13-4

> <SMILES>
NC(=S)c1c(Cl)cccc1Cl

> <NAME>
CHLORTHIAMID

> <preferred_name>
Chlorthiamid

> <iupac>
2,6-dichlorobenzenecarbothioamide

> <MPID>
99709

> <dsstox_substance_id>
DTXSID4041783

> <Canonical_QSARr>
NC(=S)c1c(Cl)cccc1Cl

> <InChI_Code_QSARr>
InChI=1S/C7H5Cl2NS/c8-4-2-1-3-5(9)6(4)7(10)11/h1-3H,(H2,10,11)

> <InChI Key_QSARr>
KGKGSIUWJCAFPX-UHFFFAOYSA-N

> <LogKOC>
2.26

$$$$
100440
  -INDIGO-08031722282D

 14 14  0  0  0  0  0  0  0  0999 V2000
   -1.6000   -0.0000    0.0000 C   0  0  0  0  0  0  0  0  0  0  0  0
    0.0000   -0.0000    0.0000 C   0  0  0  0  0  0  0  0  0  0  0  0
    0.8001    1.3856    0.0000 N   0  0  0  0  0  0  0  0  0  0  0  0
    2.4001    1.3856    0.0000 C   0  0  0  0  0  0  0  0  0  0  0  0
    3.2000    2.7713    0.0000 Cl  0  0  0  0  0  0  0  0  0  0  0  0
    3.2000   -0.0000    0.0000 C   0  0  0  0  0  0  0  0  0  0  0  0
    4.8000   -0.0000    0.0000 H   0  0  0  0  0  0  0  0  0  0  0  0
    2.4001   -1.3856    0.0000 C   0  0  0  0  0  0  0  0  0  0  0  0
    3.2000   -2.7713    0.0000 H   0  0  0  0  0  0  0  0  0  0  0  0
    0.8001   -1.3856    0.0000 C   0  0  0  0  0  0  0  0  0  0  0  0
    0.0000   -2.7713    0.0000 H   0  0  0  0  0  0  0  0  0  0  0  0
   -3.2000   -0.0000    0.0000 Cl  0  0  0  0  0  0  0  0  0  0  0  0
   -2.4001    1.3856    0.0000 Cl  0  0  0  0  0  0  0  0  0  0  0  0
   -2.3999   -1.3856    0.0000 Cl  0  0  0  0  0  0  0  0  0  0  0  0
  1  2  1  0  0  0  0
  2  3  1  0  0  0  0
  3  4  2  0  0  0  0
  4  5  1  0  0  0  0
  4  6  1  0  0  0  0
  6  7  1  0  0  0  0
  6  8  2  0  0  0  0
  8  9  1  0  0  0  0
  8 10  1  0  0  0  0
 10  2  2  0  0  0  0
 10 11  1  0  0  0  0
  1 12  1  0  0  0  0
  1 13  1  0  0  0  0
  1 14  1  0  0  0  0
M  END
> <ChemID>
100440

> <source_casrn>
1929-82-4

> <CAS>
1929-82-4

> <SMILES>
Clc1cccc([n]1)C(Cl)(Cl)Cl

> <NAME>
NITRAPYRIN

> <preferred_name>
Nitrapyrin

> <iupac>
2-chloro-6-(trichloromethyl)pyridine

> <MPID>
99713

> <dsstox_substance_id>
DTXSID0024216

> <Canonical_QSARr>
Clc1cccc([n]1)C(Cl)(Cl)Cl

> <InChI_Code_QSARr>
InChI=1S/C6H3Cl4N/c7-5-3-1-2-4(11-5)6(8,9)10/h1-3H

> <InChI Key_QSARr>
DCUJJWWUNKIJPH-UHFFFAOYSA-N

> <LogKOC>
2.62

$$$$
100444
  -INDIGO-08031722282D

 35 36  0  0  0  0  0  0  0  0999 V2000
    1.3855   -0.8000    0.0000 C   0  0  0  0  0  0  0  0  0  0  0  0
    1.3855   -2.4000    0.0000 O   0  0  0  0  0  0  0  0  0  0  0  0
    0.0000   -0.0000    0.0000 N   0  0  0  0  0  0  0  0  0  0  0  0
   -1.3858   -0.8000    0.0000 C   0  0  0  0  0  0  0  0  0  0  0  0
   -2.7713   -1.6000    0.0000 H   0  0  0  0  0  0  0  0  0  0  0  0
   -2.7713   -0.0000    0.0000 H   0  0  0  0  0  0  0  0  0  0  0  0
   -1.3858   -2.4000    0.0000 H   0  0  0  0  0  0  0  0  0  0  0  0
    0.0000    1.6000    0.0000 C   0  0  0  0  0  0  0  0  0  0  0  0
    0.0000    3.2000    0.0000 H   0  0  0  0  0  0  0  0  0  0  0  0
   -1.3858    2.4000    0.0000 H   0  0  0  0  0  0  0  0  0  0  0  0
    1.3855    2.4000    0.0000 H   0  0  0  0  0  0  0  0  0  0  0  0
    2.7713   -0.0000    0.0000 N   0  0  0  0  0  0  0  0  0  0  0  0
    2.7713    1.6000    0.0000 H   0  0  0  0  0  0  0  0  0  0  0  0
    4.1568   -0.8000    0.0000 C   0  0  0  0  0  0  0  0  0  0  0  0
    4.1568   -2.4000    0.0000 C   0  0  0  0  0  0  0  0  0  0  0  0
    2.7713   -3.2000    0.0000 H   0  0  0  0  0  0  0  0  0  0  0  0
    5.5426   -3.2000    0.0000 C   0  0  0  0  0  0  0  0  0  0  0  0
    5.5426   -4.8000    0.0000 H   0  0  0  0  0  0  0  0  0  0  0  0
    6.9281   -2.4000    0.0000 C   0  0  0  0  0  0  0  0  0  0  0  0
    8.3139   -3.2000    0.0000 O   0  0  0  0  0  0  0  0  0  0  0  0
    9.8896   -2.9221    0.0000 C   0  0  0  0  0  0  0  0  0  0  0  0
   10.9180   -4.1478    0.0000 C   0  0  0  0  0  0  0  0  0  0  0  0
   10.3707   -5.6513    0.0000 H   0  0  0  0  0  0  0  0  0  0  0  0
   12.4938   -3.8700    0.0000 C   0  0  0  0  0  0  0  0  0  0  0  0
   13.5222   -5.0957    0.0000 H   0  0  0  0  0  0  0  0  0  0  0  0
   13.0409   -2.3665    0.0000 C   0  0  0  0  0  0  0  0  0  0  0  0
   14.6166   -2.0887    0.0000 Cl  0  0  0  0  0  0  0  0  0  0  0  0
   12.0125   -1.1408    0.0000 C   0  0  0  0  0  0  0  0  0  0  0  0
   12.5596    0.3627    0.0000 H   0  0  0  0  0  0  0  0  0  0  0  0
   10.4367   -1.4186    0.0000 C   0  0  0  0  0  0  0  0  0  0  0  0
    9.4083   -0.1930    0.0000 H   0  0  0  0  0  0  0  0  0  0  0  0
    6.9281   -0.8000    0.0000 C   0  0  0  0  0  0  0  0  0  0  0  0
    8.3139   -0.0000    0.0000 H   0  0  0  0  0  0  0  0  0  0  0  0
    5.5426   -0.0000    0.0000 C   0  0  0  0  0  0  0  0  0  0  0  0
    5.5426    1.6000    0.0000 H   0  0  0  0  0  0  0  0  0  0  0  0
  1  2  2  0  0  0  0
  1  3  1  0  0  0  0
  3  4  1  0  0  0  0
  4  5  1  0  0  0  0
  4  6  1  0  0  0  0
  4  7  1  0  0  0  0
  3  8  1  0  0  0  0
  8  9  1  0  0  0  0
  8 10  1  0  0  0  0
  8 11  1  0  0  0  0
  1 12  1  0  0  0  0
 12 13  1  0  0  0  0
 12 14  1  0  0  0  0
 14 15  1  0  0  0  0
 15 16  1  0  0  0  0
 15 17  2  0  0  0  0
 17 18  1  0  0  0  0
 17 19  1  0  0  0  0
 19 20  1  0  0  0  0
 20 21  1  0  0  0  0
 21 22  1  0  0  0  0
 22 23  1  0  0  0  0
 22 24  2  0  0  0  0
 24 25  1  0  0  0  0
 24 26  1  0  0  0  0
 26 27  1  0  0  0  0
 26 28  2  0  0  0  0
 28 29  1  0  0  0  0
 28 30  1  0  0  0  0
 30 21  2  0  0  0  0
 30 31  1  0  0  0  0
 19 32  2  0  0  0  0
 32 33  1  0  0  0  0
 32 34  1  0  0  0  0
 34 14  2  0  0  0  0
 34 35  1  0  0  0  0
M  END
> <ChemID>
100444

> <source_casrn>
1982-47-4

> <CAS>
1982-47-4

> <SMILES>
CN(C)C(=O)Nc1ccc(cc1)Oc1ccc(Cl)cc1

> <NAME>
CHLOROXURON

> <preferred_name>
Chloroxuron

> <iupac>
3-[4-(4-chlorophenoxy)phenyl]-1,1-dimethylurea

> <MPID>
99717

> <dsstox_substance_id>
DTXSID7040287

> <Canonical_QSARr>
CN(C)C(=O)Nc1ccc(cc1)Oc1ccc(Cl)cc1

> <InChI_Code_QSARr>
InChI=1S/C15H15ClN2O2/c1-18(2)15(19)17-12-5-9-14(10-6-12)20-13-7-3-11(16)4-8-13/h3-10H,1-2H3,(H,17,19)

> <InChI Key_QSARr>
IVUXTESCPZUGJC-UHFFFAOYSA-N

> <LogKOC>
3.55

$$$$
100448
  -INDIGO-08031722282D

 31 31  0  0  0  0  0  0  0  0999 V2000
    8.3139    1.5999    0.0000 C   0  0  0  0  0  0  0  0  0  0  0  0
    9.6995    0.8000    0.0000 H   0  0  0  0  0  0  0  0  0  0  0  0
    9.6995    2.4000    0.0000 H   0  0  0  0  0  0  0  0  0  0  0  0
    8.3139   -0.0001    0.0000 H   0  0  0  0  0  0  0  0  0  0  0  0
    6.9282    2.4000    0.0000 N   0  0  0  0  0  0  0  0  0  0  0  0
    6.9282    4.0000    0.0000 H   0  0  0  0  0  0  0  0  0  0  0  0
    5.5427    1.5999    0.0000 C   0  0  0  0  0  0  0  0  0  0  0  0
    5.5427   -0.0001    0.0000 O   0  0  0  0  0  0  0  0  0  0  0  0
    4.1569    2.4000    0.0000 O   0  0  0  0  0  0  0  0  0  0  0  0
    2.7712    1.5999    0.0000 C   0  0  0  0  0  0  0  0  0  0  0  0
    1.3856    2.4000    0.0000 C   0  0  0  0  0  0  0  0  0  0  0  0
    1.3856    4.0000    0.0000 H   0  0  0  0  0  0  0  0  0  0  0  0
   -0.0001    1.6001    0.0000 C   0  0  0  0  0  0  0  0  0  0  0  0
   -1.3856    2.4000    0.0000 C   0  0  0  0  0  0  0  0  0  0  0  0
   -2.7714    3.1999    0.0000 H   0  0  0  0  0  0  0  0  0  0  0  0
   -1.3856    4.0000    0.0000 H   0  0  0  0  0  0  0  0  0  0  0  0
   -2.7714    1.6001    0.0000 H   0  0  0  0  0  0  0  0  0  0  0  0
   -0.0001   -0.0001    0.0000 C   0  0  0  0  0  0  0  0  0  0  0  0
   -1.3856   -0.8000    0.0000 N   0  0  0  0  0  0  0  0  0  0  0  0
   -1.3856   -2.4000    0.0000 C   0  0  0  0  0  0  0  0  0  0  0  0
   -1.3856   -4.0000    0.0000 H   0  0  0  0  0  0  0  0  0  0  0  0
   -2.7714   -3.2001    0.0000 H   0  0  0  0  0  0  0  0  0  0  0  0
    0.0001   -3.2001    0.0000 H   0  0  0  0  0  0  0  0  0  0  0  0
   -2.7714   -0.0001    0.0000 C   0  0  0  0  0  0  0  0  0  0  0  0
   -4.1569   -0.8000    0.0000 H   0  0  0  0  0  0  0  0  0  0  0  0
   -4.1569    0.8000    0.0000 H   0  0  0  0  0  0  0  0  0  0  0  0
   -2.7712   -1.6001    0.0000 H   0  0  0  0  0  0  0  0  0  0  0  0
    1.3856   -0.8000    0.0000 C   0  0  0  0  0  0  0  0  0  0  0  0
    1.3856   -2.4000    0.0000 H   0  0  0  0  0  0  0  0  0  0  0  0
    2.7712   -0.0001    0.0000 C   0  0  0  0  0  0  0  0  0  0  0  0
    4.1569   -0.8000    0.0000 H   0  0  0  0  0  0  0  0  0  0  0  0
  1  2  1  0  0  0  0
  1  3  1  0  0  0  0
  1  4  1  0  0  0  0
  1  5  1  0  0  0  0
  5  6  1  0  0  0  0
  5  7  1  0  0  0  0
  7  8  2  0  0  0  0
  7  9  1  0  0  0  0
  9 10  1  0  0  0  0
 10 11  1  0  0  0  0
 11 12  1  0  0  0  0
 11 13  2  0  0  0  0
 13 14  1  0  0  0  0
 14 15  1  0  0  0  0
 14 16  1  0  0  0  0
 14 17  1  0  0  0  0
 13 18  1  0  0  0  0
 18 19  1  0  0  0  0
 19 20  1  0  0  0  0
 20 21  1  0  0  0  0
 20 22  1  0  0  0  0
 20 23  1  0  0  0  0
 19 24  1  0  0  0  0
 24 25  1  0  0  0  0
 24 26  1  0  0  0  0
 24 27  1  0  0  0  0
 18 28  2  0  0  0  0
 28 29  1  0  0  0  0
 28 30  1  0  0  0  0
 30 10  2  0  0  0  0
 30 31  1  0  0  0  0
M  END
> <ChemID>
100448

> <source_casrn>
2032-59-9

> <CAS>
2032-59-9

> <SMILES>
Cc1cc(ccc1N(C)C)OC(=O)NC

> <NAME>
AMINOCARB

> <preferred_name>
Aminocarb

> <iupac>
4-(dimethylamino)-3-methylphenyl methylcarbamate

> <MPID>
99721

> <dsstox_substance_id>
DTXSID7022172

> <Canonical_QSARr>
Cc1cc(ccc1N(C)C)OC(=O)NC

> <InChI_Code_QSARr>
InChI=1S/C11H16N2O2/c1-8-7-9(15-11(14)12-2)5-6-10(8)13(3)4/h5-7H,1-4H3,(H,12,14)

> <InChI Key_QSARr>
IMIDOCRTMDIQIJ-UHFFFAOYSA-N

> <LogKOC>
2.0

$$$$
100452
  -INDIGO-08031722282D

 35 36  0  0  0  0  0  0  0  0999 V2000
    4.0001    1.3857    0.0000 C   0  0  0  0  0  0  0  0  0  0  0  0
    4.8000    2.7713    0.0000 H   0  0  0  0  0  0  0  0  0  0  0  0
    5.6001    1.3857    0.0000 H   0  0  0  0  0  0  0  0  0  0  0  0
    3.2000    2.7713    0.0000 H   0  0  0  0  0  0  0  0  0  0  0  0
    2.4001    1.3857    0.0000 C   0  0  0  0  0  0  0  0  0  0  0  0
    2.1912    2.9720    0.0000 H   0  0  0  0  0  0  0  0  0  0  0  0
    1.1306    2.3597    0.0000 H   0  0  0  0  0  0  0  0  0  0  0  0
    1.6000    0.0000    0.0000 O   0  0  0  0  0  0  0  0  0  0  0  0
   -0.0000    0.0000    0.0000 P   0  0  0  0  0  0  0  0  0  0  0  0
    0.8001    1.3857    0.0000 S   0  0  0  0  0  0  0  0  0  0  0  0
    0.5472   -1.5035    0.0000 O   0  0  0  0  0  0  0  0  0  0  0  0
    2.0507   -2.0507    0.0000 C   0  0  0  0  0  0  0  0  0  0  0  0
    3.2764   -1.0223    0.0000 C   0  0  0  0  0  0  0  0  0  0  0  0
    2.9986    0.5534    0.0000 H   0  0  0  0  0  0  0  0  0  0  0  0
    4.7798   -1.5695    0.0000 C   0  0  0  0  0  0  0  0  0  0  0  0
    6.0055   -0.5411    0.0000 H   0  0  0  0  0  0  0  0  0  0  0  0
    5.0578   -3.1451    0.0000 C   0  0  0  0  0  0  0  0  0  0  0  0
    6.5612   -3.6925    0.0000 N   0  0  0  0  0  0  0  0  0  0  0  0
    7.7869   -2.6639    0.0000 O   0  0  0  0  0  0  0  0  0  0  0  0
    6.8392   -5.2681    0.0000 O   0  0  0  0  0  0  0  0  0  0  0  0
    3.8321   -4.1737    0.0000 C   0  0  0  0  0  0  0  0  0  0  0  0
    4.1098   -5.7494    0.0000 H   0  0  0  0  0  0  0  0  0  0  0  0
    2.3286   -3.6265    0.0000 C   0  0  0  0  0  0  0  0  0  0  0  0
    1.1029   -4.6549    0.0000 H   0  0  0  0  0  0  0  0  0  0  0  0
   -1.6000    0.0000    0.0000 C   0  0  0  0  0  0  0  0  0  0  0  0
   -2.3999    1.3857    0.0000 C   0  0  0  0  0  0  0  0  0  0  0  0
   -1.6000    2.7713    0.0000 H   0  0  0  0  0  0  0  0  0  0  0  0
   -3.9999    1.3857    0.0000 C   0  0  0  0  0  0  0  0  0  0  0  0
   -4.8000    2.7713    0.0000 H   0  0  0  0  0  0  0  0  0  0  0  0
   -4.8000    0.0000    0.0000 C   0  0  0  0  0  0  0  0  0  0  0  0
   -6.4000    0.0000    0.0000 H   0  0  0  0  0  0  0  0  0  0  0  0
   -3.9999   -1.3856    0.0000 C   0  0  0  0  0  0  0  0  0  0  0  0
   -4.8000   -2.7713    0.0000 H   0  0  0  0  0  0  0  0  0  0  0  0
   -2.3999   -1.3856    0.0000 C   0  0  0  0  0  0  0  0  0  0  0  0
   -1.6000   -2.7713    0.0000 H   0  0  0  0  0  0  0  0  0  0  0  0
  1  2  1  0  0  0  0
  1  3  1  0  0  0  0
  1  4  1  0  0  0  0
  1  5  1  0  0  0  0
  5  6  1  0  0  0  0
  5  7  1  0  0  0  0
  5  8  1  0  0  0  0
  8  9  1  0  0  0  0
  9 10  2  0  0  0  0
  9 11  1  0  0  0  0
 11 12  1  0  0  0  0
 12 13  1  0  0  0  0
 13 14  1  0  0  0  0
 13 15  2  0  0  0  0
 15 16  1  0  0  0  0
 15 17  1  0  0  0  0
 17 18  1  0  0  0  0
 18 19  2  0  0  0  0
 18 20  1  0  0  0  0
 17 21  2  0  0  0  0
 21 22  1  0  0  0  0
 21 23  1  0  0  0  0
 23 12  2  0  0  0  0
 23 24  1  0  0  0  0
  9 25  1  0  0  0  0
 25 26  1  0  0  0  0
 26 27  1  0  0  0  0
 26 28  2  0  0  0  0
 28 29  1  0  0  0  0
 28 30  1  0  0  0  0
 30 31  1  0  0  0  0
 30 32  2  0  0  0  0
 32 33  1  0  0  0  0
 32 34  1  0  0  0  0
 34 25  2  0  0  0  0
 34 35  1  0  0  0  0
M  CHG  2  18   1  20  -1
M  END
> <ChemID>
100452

> <source_casrn>
2104-64-5

> <CAS>
2104-64-5

> <SMILES>
CCOP(=S)(Oc1ccc(cc1)[N+]([O-])=O)c1ccccc1

> <NAME>
EPN

> <preferred_name>
EPN

> <iupac>
O-ethyl O-(4-nitrophenyl) phenylphosphonothioate

> <MPID>
99725

> <dsstox_substance_id>
DTXSID7022174

> <Canonical_QSARr>
CCOP(=S)(Oc1ccc(cc1)[N+]([O-])=O)c1ccccc1

> <InChI_Code_QSARr>
InChI=1S/C14H14NO4PS/c1-2-18-20(21,14-6-4-3-5-7-14)19-13-10-8-12(9-11-13)15(16)17/h3-11H,2H2,1H3

> <InChI Key_QSARr>
AIGRXSNSLVJMEA-UHFFFAOYSA-N

> <LogKOC>
3.12

$$$$
100456
  -INDIGO-08031722282D

 19 19  0  0  0  0  0  0  0  0999 V2000
   -3.2000    2.7713    0.0000 Cl  0  0  0  0  0  0  0  0  0  0  0  0
   -2.4001    1.3856    0.0000 C   0  0  0  0  0  0  0  0  0  0  0  0
   -0.8000    1.3856    0.0000 C   0  0  0  0  0  0  0  0  0  0  0  0
    0.0000    2.7713    0.0000 H   0  0  0  0  0  0  0  0  0  0  0  0
    0.0000    0.0000    0.0000 C   0  0  0  0  0  0  0  0  0  0  0  0
    1.6000    0.0000    0.0000 N   0  0  0  0  0  0  0  0  0  0  0  0
    2.3999    1.3856    0.0000 H   0  0  0  0  0  0  0  0  0  0  0  0
    2.3999   -1.3856    0.0000 C   0  0  0  0  0  0  0  0  0  0  0  0
    1.6000   -2.7713    0.0000 O   0  0  0  0  0  0  0  0  0  0  0  0
    4.0000   -1.3856    0.0000 C   0  0  0  0  0  0  0  0  0  0  0  0
    5.6000   -1.3856    0.0000 H   0  0  0  0  0  0  0  0  0  0  0  0
    4.8000   -2.7713    0.0000 H   0  0  0  0  0  0  0  0  0  0  0  0
    4.8000    0.0000    0.0000 H   0  0  0  0  0  0  0  0  0  0  0  0
   -0.8000   -1.3856    0.0000 C   0  0  0  0  0  0  0  0  0  0  0  0
    0.0000   -2.7713    0.0000 H   0  0  0  0  0  0  0  0  0  0  0  0
   -2.4001   -1.3856    0.0000 C   0  0  0  0  0  0  0  0  0  0  0  0
   -3.2000   -2.7713    0.0000 H   0  0  0  0  0  0  0  0  0  0  0  0
   -3.2000   -0.0000    0.0000 C   0  0  0  0  0  0  0  0  0  0  0  0
   -4.8000    0.0000    0.0000 Cl  0  0  0  0  0  0  0  0  0  0  0  0
  1  2  1  0  0  0  0
  2  3  1  0  0  0  0
  3  4  1  0  0  0  0
  3  5  2  0  0  0  0
  5  6  1  0  0  0  0
  6  7  1  0  0  0  0
  6  8  1  0  0  0  0
  8  9  2  0  0  0  0
  8 10  1  0  0  0  0
 10 11  1  0  0  0  0
 10 12  1  0  0  0  0
 10 13  1  0  0  0  0
  5 14  1  0  0  0  0
 14 15  1  0  0  0  0
 14 16  2  0  0  0  0
 16 17  1  0  0  0  0
 16 18  1  0  0  0  0
 18  2  2  0  0  0  0
 18 19  1  0  0  0  0
M  END
> <ChemID>
100456

> <source_casrn>
2150-93-8

> <CAS>
2150-93-8

> <SMILES>
CC(=O)Nc1cc(Cl)c(Cl)cc1

> <NAME>
N-(3,4-DICHLOROPHENYL)ACETAMIDE

> <preferred_name>
3,4-Dichloroacetanilide

> <iupac>
N-(3,4-DICHLOROPHENYL)ACETAMIDE

> <MPID>
99729

> <dsstox_substance_id>
DTXSID00175843

> <Canonical_QSARr>
CC(=O)Nc1cc(Cl)c(Cl)cc1

> <InChI_Code_QSARr>
InChI=1S/C8H7Cl2NO/c1-5(12)11-6-2-3-7(9)8(10)4-6/h2-4H,1H3,(H,11,12)

> <InChI Key_QSARr>
SCYGGCAQZFJGRF-UHFFFAOYSA-N

> <LogKOC>
2.34

$$$$
100461
  -INDIGO-08031722282D

 20 21  0  0  0  0  0  0  0  0999 V2000
   -0.0001    0.0000    0.0000 C   0  0  0  0  0  0  0  0  0  0  0  0
    1.4381   -0.7014    0.0000 C   0  0  0  0  0  0  0  0  0  0  0  0
    2.5087   -1.8905    0.0000 C   0  0  0  0  0  0  0  0  0  0  0  0
    2.1760   -3.4555    0.0000 Cl  0  0  0  0  0  0  0  0  0  0  0  0
    3.9703   -1.2396    0.0000 C   0  0  0  0  0  0  0  0  0  0  0  0
    5.3560   -2.0397    0.0000 Cl  0  0  0  0  0  0  0  0  0  0  0  0
    3.8031    0.3516    0.0000 C   0  0  0  0  0  0  0  0  0  0  0  0
    4.9922    1.4222    0.0000 Cl  0  0  0  0  0  0  0  0  0  0  0  0
    2.2381    0.6842    0.0000 C   0  0  0  0  0  0  0  0  0  0  0  0
    1.5873    2.1460    0.0000 Cl  0  0  0  0  0  0  0  0  0  0  0  0
    0.3675   -1.8905    0.0000 Cl  0  0  0  0  0  0  0  0  0  0  0  0
   -1.0706    1.1891    0.0000 C   0  0  0  0  0  0  0  0  0  0  0  0
   -0.7379    2.7541    0.0000 Cl  0  0  0  0  0  0  0  0  0  0  0  0
   -2.5322    0.5382    0.0000 C   0  0  0  0  0  0  0  0  0  0  0  0
   -3.9179    1.3383    0.0000 Cl  0  0  0  0  0  0  0  0  0  0  0  0
   -2.3650   -1.0529    0.0000 C   0  0  0  0  0  0  0  0  0  0  0  0
   -3.5541   -2.1236    0.0000 Cl  0  0  0  0  0  0  0  0  0  0  0  0
   -0.8000   -1.3856    0.0000 C   0  0  0  0  0  0  0  0  0  0  0  0
   -0.1492   -2.8473    0.0000 Cl  0  0  0  0  0  0  0  0  0  0  0  0
    1.0706    1.1891    0.0000 Cl  0  0  0  0  0  0  0  0  0  0  0  0
  1  2  1  0  0  0  0
  2  3  1  0  0  0  0
  3  4  1  0  0  0  0
  3  5  2  0  0  0  0
  5  6  1  0  0  0  0
  5  7  1  0  0  0  0
  7  8  1  0  0  0  0
  7  9  2  0  0  0  0
  9  2  1  0  0  0  0
  9 10  1  0  0  0  0
  2 11  1  0  0  0  0
  1 12  1  0  0  0  0
 12 13  1  0  0  0  0
 12 14  2  0  0  0  0
 14 15  1  0  0  0  0
 14 16  1  0  0  0  0
 16 17  1  0  0  0  0
 16 18  2  0  0  0  0
 18  1  1  0  0  0  0
 18 19  1  0  0  0  0
  1 20  1  0  0  0  0
M  END
> <ChemID>
100461

> <source_casrn>
2227-17-0

> <CAS>
2227-17-0

> <SMILES>
ClC1(C(Cl)=C(Cl)C(Cl)=C1Cl)C1(Cl)C(Cl)=C(Cl)C(Cl)=C1Cl

> <NAME>
DIENOCHLOR

> <preferred_name>
Dienochlor

> <iupac>
1,1',2,2',3,3',4,4',5,5'-decachloro-1,1'-bi(cyclopenta-2,4-dien-1-yl)

> <MPID>
99734

> <dsstox_substance_id>
DTXSID9032371

> <Canonical_QSARr>
ClC1(C(Cl)=C(Cl)C(Cl)=C1Cl)C1(Cl)C(Cl)=C(Cl)C(Cl)=C1Cl

> <InChI_Code_QSARr>
InChI=1S/C10Cl10/c11-1-2(12)6(16)9(19,5(1)15)10(20)7(17)3(13)4(14)8(10)18

> <InChI Key_QSARr>
LWLJUMBEZJHXHV-UHFFFAOYSA-N

> <LogKOC>
4.52

$$$$
100466
  -INDIGO-08031722282D

 34 34  0  0  0  0  0  0  0  0999 V2000
   -1.6001   -0.0000    0.0000 C   0  0  0  0  0  0  0  0  0  0  0  0
   -2.4001    1.3857    0.0000 N   0  0  0  0  0  0  0  0  0  0  0  0
   -1.6001    2.7713    0.0000 H   0  0  0  0  0  0  0  0  0  0  0  0
   -4.0000    1.3857    0.0000 C   0  0  0  0  0  0  0  0  0  0  0  0
   -4.8001    2.7713    0.0000 C   0  0  0  0  0  0  0  0  0  0  0  0
   -4.0000    4.1569    0.0000 H   0  0  0  0  0  0  0  0  0  0  0  0
   -6.3999    2.7713    0.0000 C   0  0  0  0  0  0  0  0  0  0  0  0
   -7.2000    4.1569    0.0000 Cl  0  0  0  0  0  0  0  0  0  0  0  0
   -7.2000    1.3857    0.0000 C   0  0  0  0  0  0  0  0  0  0  0  0
   -8.8001    1.3857    0.0000 C   0  0  0  0  0  0  0  0  0  0  0  0
  -10.4000    1.3857    0.0000 H   0  0  0  0  0  0  0  0  0  0  0  0
   -9.5999    2.7713    0.0000 H   0  0  0  0  0  0  0  0  0  0  0  0
   -9.5999   -0.0000    0.0000 H   0  0  0  0  0  0  0  0  0  0  0  0
   -6.3999   -0.0000    0.0000 C   0  0  0  0  0  0  0  0  0  0  0  0
   -7.2000   -1.3857    0.0000 H   0  0  0  0  0  0  0  0  0  0  0  0
   -4.8001   -0.0000    0.0000 C   0  0  0  0  0  0  0  0  0  0  0  0
   -4.0000   -1.3857    0.0000 H   0  0  0  0  0  0  0  0  0  0  0  0
   -2.4001   -1.3857    0.0000 O   0  0  0  0  0  0  0  0  0  0  0  0
    0.0001   -0.0000    0.0000 C   0  0  0  0  0  0  0  0  0  0  0  0
    0.0001    1.6000    0.0000 H   0  0  0  0  0  0  0  0  0  0  0  0
    1.5999   -0.0000    0.0000 C   0  0  0  0  0  0  0  0  0  0  0  0
    1.8089   -1.5863    0.0000 H   0  0  0  0  0  0  0  0  0  0  0  0
    2.8692   -0.9740    0.0000 H   0  0  0  0  0  0  0  0  0  0  0  0
    2.4000    1.3857    0.0000 C   0  0  0  0  0  0  0  0  0  0  0  0
    2.1913    2.9719    0.0000 H   0  0  0  0  0  0  0  0  0  0  0  0
    1.1307    2.3596    0.0000 H   0  0  0  0  0  0  0  0  0  0  0  0
    4.0001    1.3857    0.0000 C   0  0  0  0  0  0  0  0  0  0  0  0
    5.6000    1.3857    0.0000 H   0  0  0  0  0  0  0  0  0  0  0  0
    4.7999    2.7713    0.0000 H   0  0  0  0  0  0  0  0  0  0  0  0
    4.7999   -0.0000    0.0000 H   0  0  0  0  0  0  0  0  0  0  0  0
    0.0001   -1.6000    0.0000 C   0  0  0  0  0  0  0  0  0  0  0  0
    0.0001   -3.2000    0.0000 H   0  0  0  0  0  0  0  0  0  0  0  0
    1.2257   -2.6285    0.0000 H   0  0  0  0  0  0  0  0  0  0  0  0
   -1.3857   -2.4000    0.0000 H   0  0  0  0  0  0  0  0  0  0  0  0
  1  2  1  0  0  0  0
  2  3  1  0  0  0  0
  2  4  1  0  0  0  0
  4  5  1  0  0  0  0
  5  6  1  0  0  0  0
  5  7  2  0  0  0  0
  7  8  1  0  0  0  0
  7  9  1  0  0  0  0
  9 10  1  0  0  0  0
 10 11  1  0  0  0  0
 10 12  1  0  0  0  0
 10 13  1  0  0  0  0
  9 14  2  0  0  0  0
 14 15  1  0  0  0  0
 14 16  1  0  0  0  0
 16  4  2  0  0  0  0
 16 17  1  0  0  0  0
  1 18  2  0  0  0  0
  1 19  1  0  0  0  0
 19 20  1  0  0  0  0
 19 21  1  0  0  0  0
 21 22  1  0  0  0  0
 21 23  1  0  0  0  0
 21 24  1  0  0  0  0
 24 25  1  0  0  0  0
 24 26  1  0  0  0  0
 24 27  1  0  0  0  0
 27 28  1  0  0  0  0
 27 29  1  0  0  0  0
 27 30  1  0  0  0  0
 19 31  1  0  0  0  0
 31 32  1  0  0  0  0
 31 33  1  0  0  0  0
 31 34  1  0  0  0  0
M  END
> <ChemID>
100466

> <source_casrn>
2307-68-8

> <CAS>
2307-68-8

> <SMILES>
Cc1ccc(cc1Cl)NC(=O)C(C)CCC

> <NAME>
PENTANOCHLOR

> <preferred_name>
Pentanochlor

> <iupac>
N-(3-chloro-4-methylphenyl)-2-methylpentanamide

> <MPID>
99738

> <dsstox_substance_id>
DTXSID3042265

> <Canonical_QSARr>
Cc1ccc(cc1Cl)NC(=O)C(C)CCC

> <InChI_Code_QSARr>
InChI=1S/C13H18ClNO/c1-4-5-10(3)13(16)15-11-7-6-9(2)12(14)8-11/h6-8,10H,4-5H2,1-3H3,(H,15,16)

> <InChI Key_QSARr>
WGVWLKXZBUVUAM-UHFFFAOYSA-N

> <LogKOC>
2.76

$$$$
100470
  -INDIGO-08031722282D

 22 26  0  0  0  0  0  0  0  0999 V2000
   -0.0000    0.0000    0.0000 C   0  0  0  0  0  0  0  0  0  0  0  0
   -1.5913    0.1672    0.0000 C   0  0  0  0  0  0  0  0  0  0  0  0
   -2.9769   -0.6328    0.0000 C   0  0  0  0  0  0  0  0  0  0  0  0
   -2.6442   -2.1978    0.0000 C   0  0  0  0  0  0  0  0  0  0  0  0
   -3.7148   -3.3868    0.0000 Cl  0  0  0  0  0  0  0  0  0  0  0  0
    1.9239   -1.7322    0.0000 C   0  0  0  0  0  0  0  0  0  0  0  0
    0.3327   -1.5650    0.0000 C   0  0  0  0  0  0  0  0  0  0  0  0
   -0.3516   -0.9270    0.0000 Cl  0  0  0  0  0  0  0  0  0  0  0  0
   -1.0530   -2.3650    0.0000 C   0  0  0  0  0  0  0  0  0  0  0  0
   -1.1832   -1.4386    0.0000 Cl  0  0  0  0  0  0  0  0  0  0  0  0
   -2.2420   -1.2944    0.0000 C   0  0  0  0  0  0  0  0  0  0  0  0
   -3.8177   -1.0166    0.0000 Cl  0  0  0  0  0  0  0  0  0  0  0  0
   -3.5685   -2.1891    0.0000 Cl  0  0  0  0  0  0  0  0  0  0  0  0
    2.8623   -3.0282    0.0000 Cl  0  0  0  0  0  0  0  0  0  0  0  0
    2.5747   -0.2706    0.0000 C   0  0  0  0  0  0  0  0  0  0  0  0
    3.9603   -1.0706    0.0000 Cl  0  0  0  0  0  0  0  0  0  0  0  0
    3.5151    1.0238    0.0000 Cl  0  0  0  0  0  0  0  0  0  0  0  0
    1.3856    0.8000    0.0000 C   0  0  0  0  0  0  0  0  0  0  0  0
    1.7159    2.3656    0.0000 Cl  0  0  0  0  0  0  0  0  0  0  0  0
   -4.4385    0.0180    0.0000 Cl  0  0  0  0  0  0  0  0  0  0  0  0
   -1.9240    1.7323    0.0000 Cl  0  0  0  0  0  0  0  0  0  0  0  0
    1.4616   -0.6508    0.0000 Cl  0  0  0  0  0  0  0  0  0  0  0  0
  1  2  1  0  0  0  0
  2  3  1  0  0  0  0
  3  4  1  0  0  0  0
  4  5  1  0  0  0  0
  4  6  1  0  0  0  0
  6  7  1  0  0  0  0
  7  1  1  0  0  0  0
  7  8  1  0  0  0  0
  7  9  1  0  0  0  0
  9  4  1  0  0  0  0
  9 10  1  0  0  0  0
  9 11  1  0  0  0  0
 11  2  1  0  0  0  0
 11 12  1  0  0  0  0
 11 13  1  0  0  0  0
  6 14  1  0  0  0  0
  6 15  1  0  0  0  0
 15 16  1  0  0  0  0
 15 17  1  0  0  0  0
 15 18  1  0  0  0  0
 18  1  1  0  0  0  0
 18  3  1  0  0  0  0
 18 19  1  0  0  0  0
  3 20  1  0  0  0  0
  2 21  1  0  0  0  0
  1 22  1  0  0  0  0
M  END
> <ChemID>
100470

> <source_casrn>
2385-85-5

> <CAS>
2385-85-5

> <SMILES>
ClC1(Cl)C2(Cl)C3(Cl)C4(Cl)C2(Cl)C2(Cl)C(Cl)(C3(Cl)C12Cl)C4(Cl)Cl

> <NAME>
MIREX

> <preferred_name>
Mirex

> <iupac>
C10Cl12

> <MPID>
99742

> <dsstox_substance_id>
DTXSID7020895

> <Canonical_QSARr>
ClC1(Cl)C2(Cl)C3(Cl)C4(Cl)C2(Cl)C2(Cl)C(Cl)(C3(Cl)C12Cl)C4(Cl)Cl

> <InChI_Code_QSARr>
InChI=1S/C10Cl12/c11-1-2(12)7(17)4(14)3(13,5(1,15)9(7,19)20)6(1,16)10(21,22)8(2,4)18

> <InChI Key_QSARr>
GVYLCNUFSHDAAW-UHFFFAOYSA-N

> <LogKOC>
6.0

$$$$
100473
  -INDIGO-08031722282D

 18 18  0  0  0  0  0  0  0  0999 V2000
    4.0000   -1.3856    0.0000 O   0  0  0  0  0  0  0  0  0  0  0  0
    4.8000   -2.7713    0.0000 H   0  0  0  0  0  0  0  0  0  0  0  0
    2.4000   -1.3856    0.0000 C   0  0  0  0  0  0  0  0  0  0  0  0
    1.6000   -0.0000    0.0000 C   0  0  0  0  0  0  0  0  0  0  0  0
    1.8089    1.5863    0.0000 H   0  0  0  0  0  0  0  0  0  0  0  0
    2.8693    0.9740    0.0000 H   0  0  0  0  0  0  0  0  0  0  0  0
    0.0001    0.0000    0.0000 C   0  0  0  0  0  0  0  0  0  0  0  0
   -0.8000    1.3856    0.0000 C   0  0  0  0  0  0  0  0  0  0  0  0
    0.0001    2.7713    0.0000 Cl  0  0  0  0  0  0  0  0  0  0  0  0
   -2.4000    1.3856    0.0000 C   0  0  0  0  0  0  0  0  0  0  0  0
   -3.1999    2.7713    0.0000 H   0  0  0  0  0  0  0  0  0  0  0  0
   -3.2001    0.0000    0.0000 C   0  0  0  0  0  0  0  0  0  0  0  0
   -4.8000   -0.0000    0.0000 H   0  0  0  0  0  0  0  0  0  0  0  0
   -2.4000   -1.3856    0.0000 C   0  0  0  0  0  0  0  0  0  0  0  0
   -3.2001   -2.7713    0.0000 Cl  0  0  0  0  0  0  0  0  0  0  0  0
   -0.8000   -1.3856    0.0000 C   0  0  0  0  0  0  0  0  0  0  0  0
    0.0001   -2.7713    0.0000 Cl  0  0  0  0  0  0  0  0  0  0  0  0
    1.6000   -2.7713    0.0000 O   0  0  0  0  0  0  0  0  0  0  0  0
  1  2  1  0  0  0  0
  1  3  1  0  0  0  0
  3  4  1  0  0  0  0
  4  5  1  0  0  0  0
  4  6  1  0  0  0  0
  4  7  1  0  0  0  0
  7  8  1  0  0  0  0
  8  9  1  0  0  0  0
  8 10  2  0  0  0  0
 10 11  1  0  0  0  0
 10 12  1  0  0  0  0
 12 13  1  0  0  0  0
 12 14  2  0  0  0  0
 14 15  1  0  0  0  0
 14 16  1  0  0  0  0
 16  7  2  0  0  0  0
 16 17  1  0  0  0  0
  3 18  2  0  0  0  0
M  END
> <ChemID>
100473

> <source_casrn>
2439-00-1

> <CAS>
2439-00-1

> <SMILES>
Clc1ccc(Cl)c(Cl)c1CC(=O)O[Na]

> <NAME>
2,3,6-TRICHLOROPHENYLACETIC ACID, SODIUM SALT

> <preferred_name>
2,3,6-Trichlorophenylacetic acid sodium salt

> <iupac>
sodium (2,3,6-trichlorophenyl)acetate

> <MPID>
99744

> <dsstox_substance_id>
DTXSID4041319

> <Canonical_QSARr>
OC(=O)Cc1c(Cl)c(Cl)ccc1Cl

> <InChI_Code_QSARr>
InChI=1S/C8H5Cl3O2/c9-5-1-2-6(10)8(11)4(5)3-7(12)13/h1-2H,3H2,(H,12,13)

> <InChI Key_QSARr>
QZXCCPZJCKEPSA-UHFFFAOYSA-N

> <LogKOC>
1.72

$$$$
100477
  -INDIGO-08031722282D

 17 17  0  0  0  0  0  0  0  0999 V2000
    0.8000    1.3856    0.0000 C   0  0  0  0  0  0  0  0  0  0  0  0
    0.0000    2.7713    0.0000 O   0  0  0  0  0  0  0  0  0  0  0  0
    0.8000    4.1569    0.0000 H   0  0  0  0  0  0  0  0  0  0  0  0
    0.0000    0.0000    0.0000 C   0  0  0  0  0  0  0  0  0  0  0  0
   -1.6000    0.0000    0.0000 O   0  0  0  0  0  0  0  0  0  0  0  0
   -2.4001   -1.3856    0.0000 C   0  0  0  0  0  0  0  0  0  0  0  0
   -4.0000   -1.3856    0.0000 H   0  0  0  0  0  0  0  0  0  0  0  0
   -3.2000   -2.7713    0.0000 H   0  0  0  0  0  0  0  0  0  0  0  0
   -3.2000    0.0000    0.0000 H   0  0  0  0  0  0  0  0  0  0  0  0
    0.8000   -1.3856    0.0000 C   0  0  0  0  0  0  0  0  0  0  0  0
    0.0000   -2.7713    0.0000 Cl  0  0  0  0  0  0  0  0  0  0  0  0
    2.4000   -1.3856    0.0000 C   0  0  0  0  0  0  0  0  0  0  0  0
    3.2001   -2.7713    0.0000 Cl  0  0  0  0  0  0  0  0  0  0  0  0
    3.2001    0.0000    0.0000 C   0  0  0  0  0  0  0  0  0  0  0  0
    4.8000    0.0000    0.0000 Cl  0  0  0  0  0  0  0  0  0  0  0  0
    2.4000    1.3856    0.0000 C   0  0  0  0  0  0  0  0  0  0  0  0
    3.2001    2.7713    0.0000 Cl  0  0  0  0  0  0  0  0  0  0  0  0
  1  2  1  0  0  0  0
  2  3  1  0  0  0  0
  1  4  1  0  0  0  0
  4  5  1  0  0  0  0
  5  6  1  0  0  0  0
  6  7  1  0  0  0  0
  6  8  1  0  0  0  0
  6  9  1  0  0  0  0
  4 10  2  0  0  0  0
 10 11  1  0  0  0  0
 10 12  1  0  0  0  0
 12 13  1  0  0  0  0
 12 14  2  0  0  0  0
 14 15  1  0  0  0  0
 14 16  1  0  0  0  0
 16  1  2  0  0  0  0
 16 17  1  0  0  0  0
M  END
> <ChemID>
100477

> <source_casrn>
2539-17-5

> <CAS>
2539-17-5

> <SMILES>
COc1c(O)c(Cl)c(Cl)c(Cl)c1Cl

> <NAME>
TETRACHLOROGUAIACOL

> <preferred_name>
3,4,5,6-Tetrachloroguaiacol

> <iupac>
2,3,4,5-tetrachloro-6-methoxyphenol

> <MPID>
99747

> <dsstox_substance_id>
DTXSID0044155

> <Canonical_QSARr>
COc1c(O)c(Cl)c(Cl)c(Cl)c1Cl

> <InChI_Code_QSARr>
InChI=1S/C7H4Cl4O2/c1-13-7-5(11)3(9)2(8)4(10)6(7)12/h12H,1H3

> <InChI Key_QSARr>
YZZVKLJKDFFSFL-UHFFFAOYSA-N

> <LogKOC>
2.85

$$$$
100481
  -INDIGO-08031722282D

 32 32  0  0  0  0  0  0  0  0999 V2000
   -6.9281   -0.8000    0.0000 C   0  0  0  0  0  0  0  0  0  0  0  0
   -5.5427   -0.0000    0.0000 O   0  0  0  0  0  0  0  0  0  0  0  0
   -4.1570   -0.8000    0.0000 C   0  0  0  0  0  0  0  0  0  0  0  0
   -2.7713   -0.0000    0.0000 C   0  0  0  0  0  0  0  0  0  0  0  0
   -2.7713    1.5999    0.0000 H   0  0  0  0  0  0  0  0  0  0  0  0
   -1.3857   -0.8000    0.0000 C   0  0  0  0  0  0  0  0  0  0  0  0
    0.0000   -0.0000    0.0000 C   0  0  0  0  0  0  0  0  0  0  0  0
    0.7999   -1.3856    0.0000 H   0  0  0  0  0  0  0  0  0  0  0  0
    1.5035    0.5473    0.0000 C   0  0  0  0  0  0  0  0  0  0  0  0
    3.0070    1.0945    0.0000 H   0  0  0  0  0  0  0  0  0  0  0  0
    2.7292   -0.4812    0.0000 H   0  0  0  0  0  0  0  0  0  0  0  0
    1.7813    2.1229    0.0000 H   0  0  0  0  0  0  0  0  0  0  0  0
   -0.7999    1.3857    0.0000 C   0  0  0  0  0  0  0  0  0  0  0  0
   -1.6001    2.7713    0.0000 H   0  0  0  0  0  0  0  0  0  0  0  0
    0.0000    2.7713    0.0000 H   0  0  0  0  0  0  0  0  0  0  0  0
    0.7999    1.3857    0.0000 H   0  0  0  0  0  0  0  0  0  0  0  0
   -1.3857   -2.4000    0.0000 C   0  0  0  0  0  0  0  0  0  0  0  0
    0.0000   -3.2000    0.0000 H   0  0  0  0  0  0  0  0  0  0  0  0
   -2.7713   -3.2000    0.0000 C   0  0  0  0  0  0  0  0  0  0  0  0
   -2.7713   -4.8000    0.0000 C   0  0  0  0  0  0  0  0  0  0  0  0
   -2.7713   -6.4000    0.0000 H   0  0  0  0  0  0  0  0  0  0  0  0
   -4.1570   -5.5999    0.0000 H   0  0  0  0  0  0  0  0  0  0  0  0
   -1.3857   -5.5999    0.0000 H   0  0  0  0  0  0  0  0  0  0  0  0
   -4.1570   -2.4000    0.0000 C   0  0  0  0  0  0  0  0  0  0  0  0
   -5.5427   -3.2000    0.0000 H   0  0  0  0  0  0  0  0  0  0  0  0
   -6.9281   -2.4000    0.0000 O   0  0  0  0  0  0  0  0  0  0  0  0
   -8.3138   -0.0000    0.0000 N   0  0  0  0  0  0  0  0  0  0  0  0
   -8.3138    1.5999    0.0000 H   0  0  0  0  0  0  0  0  0  0  0  0
   -9.6995   -0.8000    0.0000 C   0  0  0  0  0  0  0  0  0  0  0  0
  -11.0851   -1.6000    0.0000 H   0  0  0  0  0  0  0  0  0  0  0  0
  -11.0851   -0.0000    0.0000 H   0  0  0  0  0  0  0  0  0  0  0  0
   -9.6995   -2.4000    0.0000 H   0  0  0  0  0  0  0  0  0  0  0  0
  1  2  1  0  0  0  0
  2  3  1  0  0  0  0
  3  4  1  0  0  0  0
  4  5  1  0  0  0  0
  4  6  2  0  0  0  0
  6  7  1  0  0  0  0
  7  8  1  0  0  0  0
  7  9  1  0  0  0  0
  9 10  1  0  0  0  0
  9 11  1  0  0  0  0
  9 12  1  0  0  0  0
  7 13  1  0  0  0  0
 13 14  1  0  0  0  0
 13 15  1  0  0  0  0
 13 16  1  0  0  0  0
  6 17  1  0  0  0  0
 17 18  1  0  0  0  0
 17 19  2  0  0  0  0
 19 20  1  0  0  0  0
 20 21  1  0  0  0  0
 20 22  1  0  0  0  0
 20 23  1  0  0  0  0
 19 24  1  0  0  0  0
 24  3  2  0  0  0  0
 24 25  1  0  0  0  0
  1 26  2  0  0  0  0
  1 27  1  0  0  0  0
 27 28  1  0  0  0  0
 27 29  1  0  0  0  0
 29 30  1  0  0  0  0
 29 31  1  0  0  0  0
 29 32  1  0  0  0  0
M  END
> <ChemID>
100481

> <source_casrn>
2631-37-0

> <CAS>
2631-37-0

> <SMILES>
CNC(=O)Oc1cc(C)cc(c1)C(C)C

> <NAME>
3-I-PR-5-MEPHENYL-N-ME CARBAMATE

> <preferred_name>
Promecarb

> <iupac>
3-methyl-5-(propan-2-yl)phenyl methylcarbamate

> <MPID>
99751

> <dsstox_substance_id>
DTXSID4037617

> <Canonical_QSARr>
Cc1cc(cc(c1)OC(=O)NC)C(C)C

> <InChI_Code_QSARr>
InChI=1S/C12H17NO2/c1-8(2)10-5-9(3)6-11(7-10)15-12(14)13-4/h5-8H,1-4H3,(H,13,14)

> <InChI Key_QSARr>
DTAPQAJKAFRNJB-UHFFFAOYSA-N

> <LogKOC>
2.48

$$$$
100485
  -INDIGO-08031722282D

 20 20  0  0  0  0  0  0  0  0999 V2000
    1.6000   -0.0000    0.0000 O   0  0  0  0  0  0  0  0  0  0  0  0
    2.4000   -1.3856    0.0000 C   0  0  0  0  0  0  0  0  0  0  0  0
    4.0000   -1.3856    0.0000 H   0  0  0  0  0  0  0  0  0  0  0  0
    3.2000   -2.7713    0.0000 H   0  0  0  0  0  0  0  0  0  0  0  0
    3.2000   -0.0000    0.0000 H   0  0  0  0  0  0  0  0  0  0  0  0
    0.0001    0.0000    0.0000 C   0  0  0  0  0  0  0  0  0  0  0  0
   -0.7999    1.3856    0.0000 C   0  0  0  0  0  0  0  0  0  0  0  0
    0.0001    2.7713    0.0000 H   0  0  0  0  0  0  0  0  0  0  0  0
   -2.4001    1.3856    0.0000 C   0  0  0  0  0  0  0  0  0  0  0  0
   -3.2001    2.7713    0.0000 Cl  0  0  0  0  0  0  0  0  0  0  0  0
   -3.2001    0.0000    0.0000 C   0  0  0  0  0  0  0  0  0  0  0  0
   -4.8000   -0.0000    0.0000 O   0  0  0  0  0  0  0  0  0  0  0  0
   -5.6000    1.3856    0.0000 C   0  0  0  0  0  0  0  0  0  0  0  0
   -7.2000    1.3856    0.0000 H   0  0  0  0  0  0  0  0  0  0  0  0
   -6.4000    2.7713    0.0000 H   0  0  0  0  0  0  0  0  0  0  0  0
   -6.4000   -0.0000    0.0000 H   0  0  0  0  0  0  0  0  0  0  0  0
   -2.4001   -1.3856    0.0000 C   0  0  0  0  0  0  0  0  0  0  0  0
   -3.2001   -2.7713    0.0000 H   0  0  0  0  0  0  0  0  0  0  0  0
   -0.7999   -1.3856    0.0000 C   0  0  0  0  0  0  0  0  0  0  0  0
    0.0001   -2.7713    0.0000 Cl  0  0  0  0  0  0  0  0  0  0  0  0
  1  2  1  0  0  0  0
  2  3  1  0  0  0  0
  2  4  1  0  0  0  0
  2  5  1  0  0  0  0
  1  6  1  0  0  0  0
  6  7  1  0  0  0  0
  7  8  1  0  0  0  0
  7  9  2  0  0  0  0
  9 10  1  0  0  0  0
  9 11  1  0  0  0  0
 11 12  1  0  0  0  0
 12 13  1  0  0  0  0
 13 14  1  0  0  0  0
 13 15  1  0  0  0  0
 13 16  1  0  0  0  0
 11 17  2  0  0  0  0
 17 18  1  0  0  0  0
 17 19  1  0  0  0  0
 19  6  2  0  0  0  0
 19 20  1  0  0  0  0
M  END
> <ChemID>
100485

> <source_casrn>
2675-77-6

> <CAS>
2675-77-6

> <SMILES>
COc1cc(Cl)c(cc1Cl)OC

> <NAME>
1,4-DICHLORO-2,5-DIMETHOXYBENZENE

> <preferred_name>
Chloroneb

> <iupac>
1,4-dichloro-2,5-dimethoxybenzene

> <MPID>
99755

> <dsstox_substance_id>
DTXSID2024793

> <Canonical_QSARr>
COc1cc(Cl)c(cc1Cl)OC

> <InChI_Code_QSARr>
InChI=1S/C8H8Cl2O2/c1-11-7-3-6(10)8(12-2)4-5(7)9/h3-4H,1-2H3

> <InChI Key_QSARr>
PFIADAMVCJPXSF-UHFFFAOYSA-N

> <LogKOC>
3.1

$$$$
100490
  -INDIGO-08031722282D

 25 25  0  0  0  0  0  0  0  0999 V2000
    2.3999   -1.3856    0.0000 C   0  0  0  0  0  0  0  0  0  0  0  0
    1.6001    0.0000    0.0000 N   0  0  0  0  0  0  0  0  0  0  0  0
    2.3999    1.3856    0.0000 H   0  0  0  0  0  0  0  0  0  0  0  0
    0.0001    0.0000    0.0000 C   0  0  0  0  0  0  0  0  0  0  0  0
   -0.7999    1.3856    0.0000 C   0  0  0  0  0  0  0  0  0  0  0  0
    0.0001    2.7713    0.0000 H   0  0  0  0  0  0  0  0  0  0  0  0
   -2.4000    1.3856    0.0000 C   0  0  0  0  0  0  0  0  0  0  0  0
   -3.2000    2.7713    0.0000 H   0  0  0  0  0  0  0  0  0  0  0  0
   -3.2000    0.0000    0.0000 C   0  0  0  0  0  0  0  0  0  0  0  0
   -4.8000    0.0000    0.0000 Br  0  0  0  0  0  0  0  0  0  0  0  0
   -2.4000   -1.3856    0.0000 C   0  0  0  0  0  0  0  0  0  0  0  0
   -3.2000   -2.7713    0.0000 H   0  0  0  0  0  0  0  0  0  0  0  0
   -0.7999   -1.3856    0.0000 C   0  0  0  0  0  0  0  0  0  0  0  0
    0.0001   -2.7713    0.0000 H   0  0  0  0  0  0  0  0  0  0  0  0
    3.9999   -1.3856    0.0000 N   0  0  0  0  0  0  0  0  0  0  0  0
    4.8000    0.0000    0.0000 O   0  0  0  0  0  0  0  0  0  0  0  0
    6.4000    0.0000    0.0000 C   0  0  0  0  0  0  0  0  0  0  0  0
    8.0000    0.0000    0.0000 H   0  0  0  0  0  0  0  0  0  0  0  0
    7.2000    1.3856    0.0000 H   0  0  0  0  0  0  0  0  0  0  0  0
    5.6000    1.3856    0.0000 H   0  0  0  0  0  0  0  0  0  0  0  0
    4.8000   -2.7713    0.0000 C   0  0  0  0  0  0  0  0  0  0  0  0
    5.6000   -4.1569    0.0000 H   0  0  0  0  0  0  0  0  0  0  0  0
    6.4000   -2.7713    0.0000 H   0  0  0  0  0  0  0  0  0  0  0  0
    3.9999   -4.1569    0.0000 H   0  0  0  0  0  0  0  0  0  0  0  0
    1.6001   -2.7713    0.0000 O   0  0  0  0  0  0  0  0  0  0  0  0
  1  2  1  0  0  0  0
  2  3  1  0  0  0  0
  2  4  1  0  0  0  0
  4  5  1  0  0  0  0
  5  6  1  0  0  0  0
  5  7  2  0  0  0  0
  7  8  1  0  0  0  0
  7  9  1  0  0  0  0
  9 10  1  0  0  0  0
  9 11  2  0  0  0  0
 11 12  1  0  0  0  0
 11 13  1  0  0  0  0
 13  4  2  0  0  0  0
 13 14  1  0  0  0  0
  1 15  1  0  0  0  0
 15 16  1  0  0  0  0
 16 17  1  0  0  0  0
 17 18  1  0  0  0  0
 17 19  1  0  0  0  0
 17 20  1  0  0  0  0
 15 21  1  0  0  0  0
 21 22  1  0  0  0  0
 21 23  1  0  0  0  0
 21 24  1  0  0  0  0
  1 25  2  0  0  0  0
M  END
> <ChemID>
100490

> <source_casrn>
3060-89-7

> <CAS>
3060-89-7

> <SMILES>
CN(OC)C(=O)Nc1ccc(Br)cc1

> <NAME>
METOBROMURON

> <preferred_name>
Metobromuron

> <iupac>
3-(4-bromophenyl)-1-methoxy-1-methylurea

> <MPID>
99759

> <dsstox_substance_id>
DTXSID6042157

> <Canonical_QSARr>
CN(OC)C(=O)Nc1ccc(Br)cc1

> <InChI_Code_QSARr>
InChI=1S/C9H11BrN2O2/c1-12(14-2)9(13)11-8-5-3-7(10)4-6-8/h3-6H,1-2H3,(H,11,13)

> <InChI Key_QSARr>
WLFDQEVORAMCIM-UHFFFAOYSA-N

> <LogKOC>
2.1

$$$$
100494
  -INDIGO-08031722282D

 16 16  0  0  0  0  0  0  0  0999 V2000
    1.6000    0.0000    0.0000 C   0  0  0  0  0  0  0  0  0  0  0  0
    2.4001    1.3856    0.0000 O   0  0  0  0  0  0  0  0  0  0  0  0
   -0.0000    0.0000    0.0000 C   0  0  0  0  0  0  0  0  0  0  0  0
   -0.8000    1.3856    0.0000 C   0  0  0  0  0  0  0  0  0  0  0  0
   -0.0000    2.7713    0.0000 O   0  0  0  0  0  0  0  0  0  0  0  0
   -0.8000    4.1569    0.0000 H   0  0  0  0  0  0  0  0  0  0  0  0
   -2.4000    1.3856    0.0000 C   0  0  0  0  0  0  0  0  0  0  0  0
   -3.2001    2.7713    0.0000 Cl  0  0  0  0  0  0  0  0  0  0  0  0
   -3.2001    0.0000    0.0000 C   0  0  0  0  0  0  0  0  0  0  0  0
   -4.8000    0.0000    0.0000 H   0  0  0  0  0  0  0  0  0  0  0  0
   -2.4000   -1.3856    0.0000 C   0  0  0  0  0  0  0  0  0  0  0  0
   -3.2001   -2.7713    0.0000 H   0  0  0  0  0  0  0  0  0  0  0  0
   -0.8000   -1.3856    0.0000 C   0  0  0  0  0  0  0  0  0  0  0  0
   -0.0000   -2.7713    0.0000 Cl  0  0  0  0  0  0  0  0  0  0  0  0
    2.4001   -1.3856    0.0000 O   0  0  0  0  0  0  0  0  0  0  0  0
    4.0000   -1.3856    0.0000 H   0  0  0  0  0  0  0  0  0  0  0  0
  1  2  2  0  0  0  0
  1  3  1  0  0  0  0
  3  4  1  0  0  0  0
  4  5  1  0  0  0  0
  5  6  1  0  0  0  0
  4  7  2  0  0  0  0
  7  8  1  0  0  0  0
  7  9  1  0  0  0  0
  9 10  1  0  0  0  0
  9 11  2  0  0  0  0
 11 12  1  0  0  0  0
 11 13  1  0  0  0  0
 13  3  2  0  0  0  0
 13 14  1  0  0  0  0
  1 15  1  0  0  0  0
 15 16  1  0  0  0  0
M  END
> <ChemID>
100494

> <source_casrn>
3401-80-7

> <CAS>
3401-80-7

> <SMILES>
Oc1c(c(Cl)ccc1Cl)C(O)=O

> <NAME>
2-Hydroxy-3,6-dichlorobenzoic acid

> <preferred_name>
Benzoic acid, 3,6-dichloro-2-hydroxy-

> <iupac>
3,6-dichloro-2-hydroxybenzoic acid

> <MPID>
99763

> <dsstox_substance_id>
DTXSID9041657

> <Canonical_QSARr>
Oc1c(c(Cl)ccc1Cl)C(O)=O

> <InChI_Code_QSARr>
InChI=1S/C7H4Cl2O3/c8-3-1-2-4(9)6(10)5(3)7(11)12/h1-2,10H,(H,11,12)

> <InChI Key_QSARr>
FKIKPQHMWFZFEB-UHFFFAOYSA-N

> <LogKOC>
2.3

$$$$
100498
  -INDIGO-08031722282D

 21 21  0  0  0  0  0  0  0  0999 V2000
   -2.7712   -0.0000    0.0000 C   0  0  0  0  0  0  0  0  0  0  0  0
   -1.3857    0.8000    0.0000 N   0  0  0  0  0  0  0  0  0  0  0  0
   -1.3857    2.4000    0.0000 H   0  0  0  0  0  0  0  0  0  0  0  0
   -0.0001   -0.0000    0.0000 C   0  0  0  0  0  0  0  0  0  0  0  0
    1.3856    0.8000    0.0000 C   0  0  0  0  0  0  0  0  0  0  0  0
    1.3856    2.4000    0.0000 H   0  0  0  0  0  0  0  0  0  0  0  0
    2.7713   -0.0000    0.0000 C   0  0  0  0  0  0  0  0  0  0  0  0
    4.1569    0.8000    0.0000 Cl  0  0  0  0  0  0  0  0  0  0  0  0
    2.7713   -1.6000    0.0000 C   0  0  0  0  0  0  0  0  0  0  0  0
    4.1569   -2.4000    0.0000 Cl  0  0  0  0  0  0  0  0  0  0  0  0
    1.3856   -2.4000    0.0000 C   0  0  0  0  0  0  0  0  0  0  0  0
    1.3856   -4.0000    0.0000 H   0  0  0  0  0  0  0  0  0  0  0  0
   -0.0001   -1.6000    0.0000 C   0  0  0  0  0  0  0  0  0  0  0  0
   -1.3857   -2.4000    0.0000 H   0  0  0  0  0  0  0  0  0  0  0  0
   -2.7712   -1.6000    0.0000 O   0  0  0  0  0  0  0  0  0  0  0  0
   -4.1569    0.8000    0.0000 N   0  0  0  0  0  0  0  0  0  0  0  0
   -4.1569    2.4000    0.0000 H   0  0  0  0  0  0  0  0  0  0  0  0
   -5.5425   -0.0000    0.0000 C   0  0  0  0  0  0  0  0  0  0  0  0
   -6.9282   -0.8000    0.0000 H   0  0  0  0  0  0  0  0  0  0  0  0
   -6.9282    0.8000    0.0000 H   0  0  0  0  0  0  0  0  0  0  0  0
   -5.5425   -1.6000    0.0000 H   0  0  0  0  0  0  0  0  0  0  0  0
  1  2  1  0  0  0  0
  2  3  1  0  0  0  0
  2  4  1  0  0  0  0
  4  5  1  0  0  0  0
  5  6  1  0  0  0  0
  5  7  2  0  0  0  0
  7  8  1  0  0  0  0
  7  9  1  0  0  0  0
  9 10  1  0  0  0  0
  9 11  2  0  0  0  0
 11 12  1  0  0  0  0
 11 13  1  0  0  0  0
 13  4  2  0  0  0  0
 13 14  1  0  0  0  0
  1 15  2  0  0  0  0
  1 16  1  0  0  0  0
 16 17  1  0  0  0  0
 16 18  1  0  0  0  0
 18 19  1  0  0  0  0
 18 20  1  0  0  0  0
 18 21  1  0  0  0  0
M  END
> <ChemID>
100498

> <source_casrn>
3567-62-2

> <CAS>
3567-62-2

> <SMILES>
CNC(=O)Nc1ccc(Cl)c(Cl)c1

> <NAME>
3-(3,4-DICHLOROPHENYL)-1-METHYLUREA

> <preferred_name>
N-(3,4-Dichlorophenyl)-N'-methylurea

> <iupac>
1-(3,4-dichlorophenyl)-3-methylurea

> <MPID>
99767

> <dsstox_substance_id>
DTXSID3042180

> <Canonical_QSARr>
CNC(=O)Nc1ccc(Cl)c(Cl)c1

> <InChI_Code_QSARr>
InChI=1S/C8H8Cl2N2O/c1-11-8(13)12-5-2-3-6(9)7(10)4-5/h2-4H,1H3,(H2,11,12,13)

> <InChI Key_QSARr>
IDQHRQQSSQDLTR-UHFFFAOYSA-N

> <LogKOC>
2.46

$$$$
100502
  -INDIGO-08031722282D

 25 25  0  0  0  0  0  0  0  0999 V2000
    2.7713   -0.0000    0.0000 C   0  0  0  0  0  0  0  0  0  0  0  0
    2.7713   -1.6000    0.0000 O   0  0  0  0  0  0  0  0  0  0  0  0
    1.3857    0.8000    0.0000 C   0  0  0  0  0  0  0  0  0  0  0  0
    0.7734    2.2782    0.0000 H   0  0  0  0  0  0  0  0  0  0  0  0
    1.9979    2.2782    0.0000 H   0  0  0  0  0  0  0  0  0  0  0  0
    0.0000   -0.0000    0.0000 C   0  0  0  0  0  0  0  0  0  0  0  0
    0.6123   -1.4782    0.0000 H   0  0  0  0  0  0  0  0  0  0  0  0
   -0.6123   -1.4782    0.0000 H   0  0  0  0  0  0  0  0  0  0  0  0
   -1.3855    0.8000    0.0000 C   0  0  0  0  0  0  0  0  0  0  0  0
   -2.7713    1.6000    0.0000 H   0  0  0  0  0  0  0  0  0  0  0  0
   -2.7713   -0.0000    0.0000 H   0  0  0  0  0  0  0  0  0  0  0  0
   -1.3855    2.4000    0.0000 H   0  0  0  0  0  0  0  0  0  0  0  0
    4.1570    0.8000    0.0000 O   0  0  0  0  0  0  0  0  0  0  0  0
    5.5426   -0.0000    0.0000 C   0  0  0  0  0  0  0  0  0  0  0  0
    5.5426   -1.6000    0.0000 C   0  0  0  0  0  0  0  0  0  0  0  0
    4.1570   -2.4000    0.0000 Br  0  0  0  0  0  0  0  0  0  0  0  0
    6.9283   -2.4000    0.0000 C   0  0  0  0  0  0  0  0  0  0  0  0
    6.9283   -4.0000    0.0000 H   0  0  0  0  0  0  0  0  0  0  0  0
    8.3138   -1.6000    0.0000 C   0  0  0  0  0  0  0  0  0  0  0  0
    9.6996   -2.4000    0.0000 C   0  0  0  0  0  0  0  0  0  0  0  0
   11.0851   -3.2000    0.0000 N   0  0  0  0  0  0  0  0  0  0  0  0
    8.3138   -0.0000    0.0000 C   0  0  0  0  0  0  0  0  0  0  0  0
    9.6996    0.8000    0.0000 H   0  0  0  0  0  0  0  0  0  0  0  0
    6.9283    0.8000    0.0000 C   0  0  0  0  0  0  0  0  0  0  0  0
    6.9283    2.4000    0.0000 Br  0  0  0  0  0  0  0  0  0  0  0  0
  1  2  2  0  0  0  0
  1  3  1  0  0  0  0
  3  4  1  0  0  0  0
  3  5  1  0  0  0  0
  3  6  1  0  0  0  0
  6  7  1  0  0  0  0
  6  8  1  0  0  0  0
  6  9  1  0  0  0  0
  9 10  1  0  0  0  0
  9 11  1  0  0  0  0
  9 12  1  0  0  0  0
  1 13  1  0  0  0  0
 13 14  1  0  0  0  0
 14 15  1  0  0  0  0
 15 16  1  0  0  0  0
 15 17  2  0  0  0  0
 17 18  1  0  0  0  0
 17 19  1  0  0  0  0
 19 20  1  0  0  0  0
 20 21  3  0  0  0  0
 19 22  2  0  0  0  0
 22 23  1  0  0  0  0
 22 24  1  0  0  0  0
 24 14  2  0  0  0  0
 24 25  1  0  0  0  0
M  END
> <ChemID>
100502

> <source_casrn>
3861-41-4

> <CAS>
3861-41-4

> <SMILES>
CCCC(=O)Oc1c(Br)cc(cc1Br)C#N

> <NAME>
Bromoxynil butyrate

> <preferred_name>
Bromoxynil butyrate

> <iupac>
2,6-dibromo-4-cyanophenyl butanoate

> <MPID>
99771

> <dsstox_substance_id>
DTXSID3032335

> <Canonical_QSARr>
CCCC(=O)Oc1c(Br)cc(cc1Br)C#N

> <InChI_Code_QSARr>
InChI=1S/C11H9Br2NO2/c1-2-3-10(15)16-11-8(12)4-7(6-14)5-9(11)13/h4-5H,2-3H2,1H3

> <InChI Key_QSARr>
PGMZYNZXIYOOHJ-UHFFFAOYSA-N

> <LogKOC>
3.03

$$$$
100507
  -INDIGO-08031722282D

 22 23  0  0  0  0  0  0  0  0999 V2000
    4.0000    1.3856    0.0000 O   0  0  0  0  0  0  0  0  0  0  0  0
    4.8000    2.7713    0.0000 H   0  0  0  0  0  0  0  0  0  0  0  0
    2.4000    1.3856    0.0000 C   0  0  0  0  0  0  0  0  0  0  0  0
    1.1307    2.3596    0.0000 H   0  0  0  0  0  0  0  0  0  0  0  0
    2.1912    2.9720    0.0000 H   0  0  0  0  0  0  0  0  0  0  0  0
    1.6000   -0.0000    0.0000 C   0  0  0  0  0  0  0  0  0  0  0  0
    0.0001   -0.0000    0.0000 C   0  0  0  0  0  0  0  0  0  0  0  0
   -0.8000   -1.3857    0.0000 C   0  0  0  0  0  0  0  0  0  0  0  0
   -2.4000   -1.3857    0.0000 C   0  0  0  0  0  0  0  0  0  0  0  0
   -3.1999   -2.7713    0.0000 H   0  0  0  0  0  0  0  0  0  0  0  0
   -3.1999   -0.0000    0.0000 C   0  0  0  0  0  0  0  0  0  0  0  0
   -4.8000   -0.0000    0.0000 H   0  0  0  0  0  0  0  0  0  0  0  0
   -2.4000    1.3856    0.0000 C   0  0  0  0  0  0  0  0  0  0  0  0
   -3.2001    2.7713    0.0000 H   0  0  0  0  0  0  0  0  0  0  0  0
   -0.8000    1.3856    0.0000 C   0  0  0  0  0  0  0  0  0  0  0  0
   -0.0001    2.7713    0.0000 H   0  0  0  0  0  0  0  0  0  0  0  0
    0.0001   -2.7713    0.0000 C   0  0  0  0  0  0  0  0  0  0  0  0
   -0.8000   -4.1569    0.0000 H   0  0  0  0  0  0  0  0  0  0  0  0
    1.6000   -2.7713    0.0000 C   0  0  0  0  0  0  0  0  0  0  0  0
    2.4000   -4.1569    0.0000 H   0  0  0  0  0  0  0  0  0  0  0  0
    2.4000   -1.3857    0.0000 C   0  0  0  0  0  0  0  0  0  0  0  0
    4.0000   -1.3857    0.0000 H   0  0  0  0  0  0  0  0  0  0  0  0
  1  2  1  0  0  0  0
  1  3  1  0  0  0  0
  3  4  1  0  0  0  0
  3  5  1  0  0  0  0
  3  6  1  0  0  0  0
  6  7  1  0  0  0  0
  7  8  1  0  0  0  0
  8  9  2  0  0  0  0
  9 10  1  0  0  0  0
  9 11  1  0  0  0  0
 11 12  1  0  0  0  0
 11 13  2  0  0  0  0
 13 14  1  0  0  0  0
 13 15  1  0  0  0  0
 15  7  2  0  0  0  0
 15 16  1  0  0  0  0
  8 17  1  0  0  0  0
 17 18  1  0  0  0  0
 17 19  2  0  0  0  0
 19 20  1  0  0  0  0
 19 21  1  0  0  0  0
 21  6  2  0  0  0  0
 21 22  1  0  0  0  0
M  END
> <ChemID>
100507

> <source_casrn>
4780-79-4

> <CAS>
4780-79-4

> <SMILES>
OCc1cccc2ccccc21

> <NAME>
1-NAPHTHALENEMETHANOL

> <preferred_name>
1-Hydroxymethylnaphthalene

> <iupac>
naphthalen-1-ylmethanol

> <MPID>
99775

> <dsstox_substance_id>
DTXSID30197295

> <Canonical_QSARr>
OCc1cccc2ccccc21

> <InChI_Code_QSARr>
InChI=1S/C11H10O/c12-8-10-6-3-5-9-4-1-2-7-11(9)10/h1-7,12H,8H2

> <InChI Key_QSARr>
PBLNHHSDYFYZNC-UHFFFAOYSA-N

> <LogKOC>
2.17

$$$$
100511
  -INDIGO-08031722282D

 31 32  0  0  0  0  0  0  0  0999 V2000
   -1.6001    2.7713    0.0000 O   0  0  0  0  0  0  0  0  0  0  0  0
    0.0001    2.7713    0.0000 C   0  0  0  0  0  0  0  0  0  0  0  0
    0.8000    4.1570    0.0000 C   0  0  0  0  0  0  0  0  0  0  0  0
    1.6000    5.5426    0.0000 H   0  0  0  0  0  0  0  0  0  0  0  0
    0.0001    5.5426    0.0000 H   0  0  0  0  0  0  0  0  0  0  0  0
    2.4000    4.1570    0.0000 H   0  0  0  0  0  0  0  0  0  0  0  0
    0.8000    1.3856    0.0000 C   0  0  0  0  0  0  0  0  0  0  0  0
    2.4000    1.3857    0.0000 C   0  0  0  0  0  0  0  0  0  0  0  0
    3.2000    2.7713    0.0000 O   0  0  0  0  0  0  0  0  0  0  0  0
    3.2000    0.0000    0.0000 N   0  0  0  0  0  0  0  0  0  0  0  0
    2.4000   -1.3857    0.0000 H   0  0  0  0  0  0  0  0  0  0  0  0
    4.7999    0.0000    0.0000 C   0  0  0  0  0  0  0  0  0  0  0  0
    5.5999   -1.3856    0.0000 C   0  0  0  0  0  0  0  0  0  0  0  0
    4.7999   -2.7713    0.0000 H   0  0  0  0  0  0  0  0  0  0  0  0
    7.2001   -1.3856    0.0000 C   0  0  0  0  0  0  0  0  0  0  0  0
    8.0000   -2.7713    0.0000 H   0  0  0  0  0  0  0  0  0  0  0  0
    8.0000    0.0000    0.0000 C   0  0  0  0  0  0  0  0  0  0  0  0
    9.6000    0.0000    0.0000 H   0  0  0  0  0  0  0  0  0  0  0  0
    7.2001    1.3857    0.0000 C   0  0  0  0  0  0  0  0  0  0  0  0
    8.0000    2.7713    0.0000 H   0  0  0  0  0  0  0  0  0  0  0  0
    5.5999    1.3857    0.0000 C   0  0  0  0  0  0  0  0  0  0  0  0
    4.7999    2.7713    0.0000 H   0  0  0  0  0  0  0  0  0  0  0  0
    0.0001    0.0000    0.0000 S   0  0  0  0  0  0  0  0  0  0  0  0
    1.5036   -0.5473    0.0000 O   0  0  0  0  0  0  0  0  0  0  0  0
   -0.2778   -1.5757    0.0000 O   0  0  0  0  0  0  0  0  0  0  0  0
   -1.6001    0.0000    0.0000 C   0  0  0  0  0  0  0  0  0  0  0  0
   -1.3222   -1.5757    0.0000 H   0  0  0  0  0  0  0  0  0  0  0  0
   -3.1036   -0.5473    0.0000 H   0  0  0  0  0  0  0  0  0  0  0  0
   -2.4001    1.3856    0.0000 C   0  0  0  0  0  0  0  0  0  0  0  0
   -3.6257    0.3572    0.0000 H   0  0  0  0  0  0  0  0  0  0  0  0
   -3.6257    2.4140    0.0000 H   0  0  0  0  0  0  0  0  0  0  0  0
  1  2  1  0  0  0  0
  2  3  1  0  0  0  0
  3  4  1  0  0  0  0
  3  5  1  0  0  0  0
  3  6  1  0  0  0  0
  2  7  2  0  0  0  0
  7  8  1  0  0  0  0
  8  9  2  0  0  0  0
  8 10  1  0  0  0  0
 10 11  1  0  0  0  0
 10 12  1  0  0  0  0
 12 13  1  0  0  0  0
 13 14  1  0  0  0  0
 13 15  2  0  0  0  0
 15 16  1  0  0  0  0
 15 17  1  0  0  0  0
 17 18  1  0  0  0  0
 17 19  2  0  0  0  0
 19 20  1  0  0  0  0
 19 21  1  0  0  0  0
 21 12  2  0  0  0  0
 21 22  1  0  0  0  0
  7 23  1  0  0  0  0
 23 24  2  0  0  0  0
 23 25  2  0  0  0  0
 23 26  1  0  0  0  0
 26 27  1  0  0  0  0
 26 28  1  0  0  0  0
 26 29  1  0  0  0  0
 29  1  1  0  0  0  0
 29 30  1  0  0  0  0
 29 31  1  0  0  0  0
M  END
> <ChemID>
100511

> <source_casrn>
5259-88-1

> <CAS>
5259-88-1

> <SMILES>
CC1OCCS(=O)(=O)C=1C(=O)Nc1ccccc1

> <NAME>
OXYCARBOXIN

> <preferred_name>
Oxycarboxin

> <iupac>
2-methyl-N-phenyl-5,6-dihydro-1,4-oxathiine-3-carboxamide 4,4-dioxide

> <MPID>
99779

> <dsstox_substance_id>
DTXSID8034792

> <Canonical_QSARr>
CC1OCCS(=O)(=O)C=1C(=O)Nc1ccccc1

> <InChI_Code_QSARr>
InChI=1S/C12H13NO4S/c1-9-11(18(15,16)8-7-17-9)12(14)13-10-5-3-2-4-6-10/h2-6H,7-8H2,1H3,(H,13,14)

> <InChI Key_QSARr>
AMEKQAFGQBKLKX-UHFFFAOYSA-N

> <LogKOC>
1.98

$$$$
100515
  -INDIGO-08031722282D

 27 27  0  0  0  0  0  0  0  0999 V2000
   -1.5999    0.0000    0.0000 N   0  0  0  0  0  0  0  0  0  0  0  0
   -2.3999    1.3857    0.0000 C   0  0  0  0  0  0  0  0  0  0  0  0
   -1.5999    2.7713    0.0000 O   0  0  0  0  0  0  0  0  0  0  0  0
   -4.0001    1.3857    0.0000 C   0  0  0  0  0  0  0  0  0  0  0  0
   -4.8000    2.7713    0.0000 Cl  0  0  0  0  0  0  0  0  0  0  0  0
   -4.8000    0.0000    0.0000 C   0  0  0  0  0  0  0  0  0  0  0  0
   -6.4000    0.0000    0.0000 C   0  0  0  0  0  0  0  0  0  0  0  0
   -8.0000    0.0000    0.0000 H   0  0  0  0  0  0  0  0  0  0  0  0
   -7.2000   -1.3857    0.0000 H   0  0  0  0  0  0  0  0  0  0  0  0
   -7.2000    1.3857    0.0000 H   0  0  0  0  0  0  0  0  0  0  0  0
   -4.0001   -1.3857    0.0000 N   0  0  0  0  0  0  0  0  0  0  0  0
   -4.8000   -2.7713    0.0000 H   0  0  0  0  0  0  0  0  0  0  0  0
   -2.3999   -1.3857    0.0000 C   0  0  0  0  0  0  0  0  0  0  0  0
   -1.5999   -2.7713    0.0000 O   0  0  0  0  0  0  0  0  0  0  0  0
    0.0000    0.0000    0.0000 C   0  0  0  0  0  0  0  0  0  0  0  0
    1.6000   -0.0000    0.0000 C   0  0  0  0  0  0  0  0  0  0  0  0
    3.2000   -0.0000    0.0000 H   0  0  0  0  0  0  0  0  0  0  0  0
    2.6285   -1.2256    0.0000 H   0  0  0  0  0  0  0  0  0  0  0  0
    2.6285    1.2256    0.0000 H   0  0  0  0  0  0  0  0  0  0  0  0
    0.0000    1.6000    0.0000 C   0  0  0  0  0  0  0  0  0  0  0  0
   -0.2778    3.1757    0.0000 H   0  0  0  0  0  0  0  0  0  0  0  0
    1.2258    2.6285    0.0000 H   0  0  0  0  0  0  0  0  0  0  0  0
    1.5035    1.0527    0.0000 H   0  0  0  0  0  0  0  0  0  0  0  0
    0.0000   -1.6000    0.0000 C   0  0  0  0  0  0  0  0  0  0  0  0
   -0.2778   -3.1757    0.0000 H   0  0  0  0  0  0  0  0  0  0  0  0
    1.2258   -2.6285    0.0000 H   0  0  0  0  0  0  0  0  0  0  0  0
    1.5035   -1.0527    0.0000 H   0  0  0  0  0  0  0  0  0  0  0  0
  1  2  1  0  0  0  0
  2  3  2  0  0  0  0
  2  4  1  0  0  0  0
  4  5  1  0  0  0  0
  4  6  2  0  0  0  0
  6  7  1  0  0  0  0
  7  8  1  0  0  0  0
  7  9  1  0  0  0  0
  7 10  1  0  0  0  0
  6 11  1  0  0  0  0
 11 12  1  0  0  0  0
 11 13  1  0  0  0  0
 13  1  1  0  0  0  0
 13 14  2  0  0  0  0
  1 15  1  0  0  0  0
 15 16  1  0  0  0  0
 16 17  1  0  0  0  0
 16 18  1  0  0  0  0
 16 19  1  0  0  0  0
 15 20  1  0  0  0  0
 20 21  1  0  0  0  0
 20 22  1  0  0  0  0
 20 23  1  0  0  0  0
 15 24  1  0  0  0  0
 24 25  1  0  0  0  0
 24 26  1  0  0  0  0
 24 27  1  0  0  0  0
M  END
> <ChemID>
100515

> <source_casrn>
5902-51-2

> <CAS>
5902-51-2

> <SMILES>
CC1NC(=O)N(C(=O)C=1Cl)C(C)(C)C

> <NAME>
TERBACIL

> <preferred_name>
Terbacil

> <iupac>
3-tert-butyl-5-chloro-6-methylpyrimidine-2,4(1H,3H)-dione

> <MPID>
99783

> <dsstox_substance_id>
DTXSID8024317

> <Canonical_QSARr>
CC1NC(=O)N(C(=O)C=1Cl)C(C)(C)C

> <InChI_Code_QSARr>
InChI=1S/C9H13ClN2O2/c1-5-6(10)7(13)12(8(14)11-5)9(2,3)4/h1-4H3,(H,11,14)

> <InChI Key_QSARr>
NBQCNZYJJMBDKY-UHFFFAOYSA-N

> <LogKOC>
1.66

$$$$
100519
  -INDIGO-08031722282D

 28 27  0  0  0  0  0  0  0  0999 V2000
   -0.0001    0.0001    0.0000 P   0  0  0  0  0  0  0  0  0  0  0  0
    1.3856    0.8000    0.0000 O   0  0  0  0  0  0  0  0  0  0  0  0
    2.7713    0.0001    0.0000 C   0  0  0  0  0  0  0  0  0  0  0  0
    4.1569    0.8000    0.0000 C   0  0  0  0  0  0  0  0  0  0  0  0
    4.1569    2.4000    0.0000 H   0  0  0  0  0  0  0  0  0  0  0  0
    5.5426    0.0001    0.0000 C   0  0  0  0  0  0  0  0  0  0  0  0
    5.5426   -1.5999    0.0000 O   0  0  0  0  0  0  0  0  0  0  0  0
    6.9283    0.8000    0.0000 N   0  0  0  0  0  0  0  0  0  0  0  0
    6.9283    2.4000    0.0000 H   0  0  0  0  0  0  0  0  0  0  0  0
    8.3138    0.0001    0.0000 C   0  0  0  0  0  0  0  0  0  0  0  0
    9.6995   -0.8000    0.0000 H   0  0  0  0  0  0  0  0  0  0  0  0
    9.6995    0.8000    0.0000 H   0  0  0  0  0  0  0  0  0  0  0  0
    8.3138   -1.5999    0.0000 H   0  0  0  0  0  0  0  0  0  0  0  0
    2.7713   -1.5999    0.0000 C   0  0  0  0  0  0  0  0  0  0  0  0
    2.7713   -3.2001    0.0000 H   0  0  0  0  0  0  0  0  0  0  0  0
    4.1569   -2.4000    0.0000 H   0  0  0  0  0  0  0  0  0  0  0  0
    1.3856   -2.4000    0.0000 H   0  0  0  0  0  0  0  0  0  0  0  0
   -0.0001   -1.5999    0.0000 O   0  0  0  0  0  0  0  0  0  0  0  0
   -1.3856   -0.8000    0.0000 O   0  0  0  0  0  0  0  0  0  0  0  0
   -1.3856   -2.4000    0.0000 C   0  0  0  0  0  0  0  0  0  0  0  0
   -2.7713   -3.2001    0.0000 H   0  0  0  0  0  0  0  0  0  0  0  0
   -1.3856   -4.0000    0.0000 H   0  0  0  0  0  0  0  0  0  0  0  0
   -2.7713   -1.6001    0.0000 H   0  0  0  0  0  0  0  0  0  0  0  0
   -1.3856    0.8000    0.0000 O   0  0  0  0  0  0  0  0  0  0  0  0
   -1.3856    2.4000    0.0000 C   0  0  0  0  0  0  0  0  0  0  0  0
   -1.3856    4.0000    0.0000 H   0  0  0  0  0  0  0  0  0  0  0  0
   -2.7713    3.2001    0.0000 H   0  0  0  0  0  0  0  0  0  0  0  0
   -0.0001    3.2001    0.0000 H   0  0  0  0  0  0  0  0  0  0  0  0
  1  2  1  0  0  0  0
  2  3  1  0  0  0  0
  3  4  2  0  0  0  0
  4  5  1  0  0  0  0
  4  6  1  0  0  0  0
  6  7  2  0  0  0  0
  6  8  1  0  0  0  0
  8  9  1  0  0  0  0
  8 10  1  0  0  0  0
 10 11  1  0  0  0  0
 10 12  1  0  0  0  0
 10 13  1  0  0  0  0
  3 14  1  0  0  0  0
 14 15  1  0  0  0  0
 14 16  1  0  0  0  0
 14 17  1  0  0  0  0
  1 18  2  0  0  0  0
  1 19  1  0  0  0  0
 19 20  1  0  0  0  0
 20 21  1  0  0  0  0
 20 22  1  0  0  0  0
 20 23  1  0  0  0  0
  1 24  1  0  0  0  0
 24 25  1  0  0  0  0
 25 26  1  0  0  0  0
 25 27  1  0  0  0  0
 25 28  1  0  0  0  0
M  END
> <ChemID>
100519

> <source_casrn>
6923-22-4

> <CAS>
6923-22-4

> <SMILES>
C/C(=C\C(=O)NC)/OP(=O)(OC)OC

> <NAME>
AZODRIN

> <preferred_name>
Monocrotophos

> <iupac>
dimethyl (2E)-4-(methylamino)-4-oxobut-2-en-2-yl phosphate

> <MPID>
99787

> <dsstox_substance_id>
DTXSID9034816

> <Canonical_QSARr>
CC(=CC(=O)NC)OP(=O)(OC)OC

> <InChI_Code_QSARr>
InChI=1S/C7H14NO5P/c1-6(5-7(9)8-2)13-14(10,11-3)12-4/h5H,1-4H3,(H,8,9)/b6-5+

> <InChI Key_QSARr>
KRTSDMXIXPKRQR-AATRIKPKSA-N

> <LogKOC>
0.0

$$$$
100523
  -INDIGO-08031722282D

 23 23  0  0  0  0  0  0  0  0999 V2000
   -3.1999    2.7713    0.0000 Cl  0  0  0  0  0  0  0  0  0  0  0  0
   -2.3999    1.3856    0.0000 C   0  0  0  0  0  0  0  0  0  0  0  0
   -0.7999    1.3856    0.0000 C   0  0  0  0  0  0  0  0  0  0  0  0
   -0.0001    2.7713    0.0000 H   0  0  0  0  0  0  0  0  0  0  0  0
   -0.0001    0.0000    0.0000 C   0  0  0  0  0  0  0  0  0  0  0  0
    1.5999    0.0000    0.0000 N   0  0  0  0  0  0  0  0  0  0  0  0
    2.4000    1.3856    0.0000 H   0  0  0  0  0  0  0  0  0  0  0  0
    2.4000   -1.3856    0.0000 C   0  0  0  0  0  0  0  0  0  0  0  0
    1.5999   -2.7713    0.0000 O   0  0  0  0  0  0  0  0  0  0  0  0
    4.0000   -1.3856    0.0000 C   0  0  0  0  0  0  0  0  0  0  0  0
    5.6000   -1.3856    0.0000 H   0  0  0  0  0  0  0  0  0  0  0  0
    4.8000   -2.7713    0.0000 H   0  0  0  0  0  0  0  0  0  0  0  0
    4.8000    0.0000    0.0000 H   0  0  0  0  0  0  0  0  0  0  0  0
   -0.7999   -1.3856    0.0000 C   0  0  0  0  0  0  0  0  0  0  0  0
   -0.0001   -2.7713    0.0000 H   0  0  0  0  0  0  0  0  0  0  0  0
   -2.3999   -1.3856    0.0000 C   0  0  0  0  0  0  0  0  0  0  0  0
   -3.1999   -2.7713    0.0000 H   0  0  0  0  0  0  0  0  0  0  0  0
   -3.1999   -0.0000    0.0000 C   0  0  0  0  0  0  0  0  0  0  0  0
   -4.8000    0.0000    0.0000 O   0  0  0  0  0  0  0  0  0  0  0  0
   -5.6000    1.3856    0.0000 C   0  0  0  0  0  0  0  0  0  0  0  0
   -7.2000    1.3856    0.0000 H   0  0  0  0  0  0  0  0  0  0  0  0
   -6.4000    2.7713    0.0000 H   0  0  0  0  0  0  0  0  0  0  0  0
   -6.4000    0.0000    0.0000 H   0  0  0  0  0  0  0  0  0  0  0  0
  1  2  1  0  0  0  0
  2  3  1  0  0  0  0
  3  4  1  0  0  0  0
  3  5  2  0  0  0  0
  5  6  1  0  0  0  0
  6  7  1  0  0  0  0
  6  8  1  0  0  0  0
  8  9  2  0  0  0  0
  8 10  1  0  0  0  0
 10 11  1  0  0  0  0
 10 12  1  0  0  0  0
 10 13  1  0  0  0  0
  5 14  1  0  0  0  0
 14 15  1  0  0  0  0
 14 16  2  0  0  0  0
 16 17  1  0  0  0  0
 16 18  1  0  0  0  0
 18  2  2  0  0  0  0
 18 19  1  0  0  0  0
 19 20  1  0  0  0  0
 20 21  1  0  0  0  0
 20 22  1  0  0  0  0
 20 23  1  0  0  0  0
M  END
> <ChemID>
100523

> <source_casrn>
7073-42-9

> <CAS>
7073-42-9

> <SMILES>
CC(=O)Nc1cc(Cl)c(cc1)OC

> <NAME>
3-CHLORO-4-METHOXYACETANILIDE

> <preferred_name>
Acetamide, N-(3-chloro-4-methoxyphenyl)-

> <iupac>
N-(3-CHLORO-4-METHOXYPHENYL)ACETAMIDE

> <MPID>
99791

> <dsstox_substance_id>
DTXSID20220985

> <Canonical_QSARr>
CC(=O)Nc1cc(Cl)c(cc1)OC

> <InChI_Code_QSARr>
InChI=1S/C9H10ClNO2/c1-6(12)11-7-3-4-9(13-2)8(10)5-7/h3-5H,1-2H3,(H,11,12)

> <InChI Key_QSARr>
WNOVNNUWOUKIOL-UHFFFAOYSA-N

> <LogKOC>
1.95

$$$$
100527
  -INDIGO-08031722282D

 20 20  0  0  0  0  0  0  0  0999 V2000
    1.3856    2.4000    0.0000 Cl  0  0  0  0  0  0  0  0  0  0  0  0
    1.3856    0.8000    0.0000 C   0  0  0  0  0  0  0  0  0  0  0  0
    2.7712   -0.0000    0.0000 C   0  0  0  0  0  0  0  0  0  0  0  0
    4.1569    0.8000    0.0000 N   0  0  0  0  0  0  0  0  0  0  0  0
    5.5426   -0.0000    0.0000 H   0  0  0  0  0  0  0  0  0  0  0  0
    4.1569    2.4000    0.0000 H   0  0  0  0  0  0  0  0  0  0  0  0
    2.7712   -1.6000    0.0000 C   0  0  0  0  0  0  0  0  0  0  0  0
    4.1569   -2.4000    0.0000 H   0  0  0  0  0  0  0  0  0  0  0  0
    1.3856   -2.4000    0.0000 C   0  0  0  0  0  0  0  0  0  0  0  0
    1.3856   -4.0000    0.0000 Cl  0  0  0  0  0  0  0  0  0  0  0  0
   -0.0001   -1.6000    0.0000 C   0  0  0  0  0  0  0  0  0  0  0  0
   -1.3856   -2.4000    0.0000 H   0  0  0  0  0  0  0  0  0  0  0  0
   -0.0001   -0.0000    0.0000 C   0  0  0  0  0  0  0  0  0  0  0  0
   -1.3856    0.8000    0.0000 C   0  0  0  0  0  0  0  0  0  0  0  0
   -1.3856    2.4000    0.0000 O   0  0  0  0  0  0  0  0  0  0  0  0
   -2.7712   -0.0000    0.0000 O   0  0  0  0  0  0  0  0  0  0  0  0
   -4.1569    0.8000    0.0000 C   0  0  0  0  0  0  0  0  0  0  0  0
   -5.5426    1.6000    0.0000 H   0  0  0  0  0  0  0  0  0  0  0  0
   -5.5426   -0.0000    0.0000 H   0  0  0  0  0  0  0  0  0  0  0  0
   -4.1569    2.4000    0.0000 H   0  0  0  0  0  0  0  0  0  0  0  0
  1  2  1  0  0  0  0
  2  3  1  0  0  0  0
  3  4  1  0  0  0  0
  4  5  1  0  0  0  0
  4  6  1  0  0  0  0
  3  7  2  0  0  0  0
  7  8  1  0  0  0  0
  7  9  1  0  0  0  0
  9 10  1  0  0  0  0
  9 11  2  0  0  0  0
 11 12  1  0  0  0  0
 11 13  1  0  0  0  0
 13  2  2  0  0  0  0
 13 14  1  0  0  0  0
 14 15  2  0  0  0  0
 14 16  1  0  0  0  0
 16 17  1  0  0  0  0
 17 18  1  0  0  0  0
 17 19  1  0  0  0  0
 17 20  1  0  0  0  0
M  END
> <ChemID>
100527

> <source_casrn>
7286-84-2

> <CAS>
7286-84-2

> <SMILES>
O=C(OC)c(c(c(N)cc1Cl)Cl)c1

> <NAME>
CHLORAMBEN, METHYL ESTER

> <preferred_name>
Chloramben-methyl

> <iupac>
methyl 3-amino-2,5-dichlorobenzoate

> <MPID>
99795

> <dsstox_substance_id>
DTXSID1041762

> <Canonical_QSARr>
COC(=O)c1cc(Cl)cc(N)c1Cl

> <InChI_Code_QSARr>
InChI=1S/C8H7Cl2NO2/c1-13-8(12)5-2-4(9)3-6(11)7(5)10/h2-3H,11H2,1H3

> <InChI Key_QSARr>
DTSSCQVCVYZGSI-UHFFFAOYSA-N

> <LogKOC>
2.74

$$$$
100536
  -INDIGO-08031722282D

 15 14  0  0  0  0  0  0  0  0999 V2000
    0.0001    0.0000    0.0000 P   0  0  0  0  0  0  0  0  0  0  0  0
    0.8000   -1.3856    0.0000 O   0  0  0  0  0  0  0  0  0  0  0  0
    1.6001   -0.0000    0.0000 S   0  0  0  0  0  0  0  0  0  0  0  0
    2.4000   -1.3856    0.0000 C   0  0  0  0  0  0  0  0  0  0  0  0
    3.2001   -2.7713    0.0000 H   0  0  0  0  0  0  0  0  0  0  0  0
    4.0000   -1.3856    0.0000 H   0  0  0  0  0  0  0  0  0  0  0  0
    1.6001   -2.7713    0.0000 H   0  0  0  0  0  0  0  0  0  0  0  0
    0.8000    1.3856    0.0000 N   0  0  0  0  0  0  0  0  0  0  0  0
    0.0001    2.7713    0.0000 H   0  0  0  0  0  0  0  0  0  0  0  0
    2.4000    1.3856    0.0000 H   0  0  0  0  0  0  0  0  0  0  0  0
   -1.5999    0.0000    0.0000 O   0  0  0  0  0  0  0  0  0  0  0  0
   -2.4000   -1.3856    0.0000 C   0  0  0  0  0  0  0  0  0  0  0  0
   -3.2001   -2.7713    0.0000 H   0  0  0  0  0  0  0  0  0  0  0  0
   -4.0000   -1.3856    0.0000 H   0  0  0  0  0  0  0  0  0  0  0  0
   -1.5999   -2.7713    0.0000 H   0  0  0  0  0  0  0  0  0  0  0  0
  1  2  2  0  0  0  0
  1  3  1  0  0  0  0
  3  4  1  0  0  0  0
  4  5  1  0  0  0  0
  4  6  1  0  0  0  0
  4  7  1  0  0  0  0
  1  8  1  0  0  0  0
  8  9  1  0  0  0  0
  8 10  1  0  0  0  0
  1 11  1  0  0  0  0
 11 12  1  0  0  0  0
 12 13  1  0  0  0  0
 12 14  1  0  0  0  0
 12 15  1  0  0  0  0
M  END
> <ChemID>
100536

> <source_casrn>
10265-92-6

> <CAS>
10265-92-6

> <SMILES>
COP(N)(=O)SC

> <NAME>
METHAMIDOPHOS

> <preferred_name>
Methamidophos

> <iupac>
O,S-dimethyl phosphoramidothioate

> <MPID>
99799

> <dsstox_substance_id>
DTXSID6024177

> <Canonical_QSARr>
COP(N)(=O)SC

> <InChI_Code_QSARr>
InChI=1S/C2H8NO2PS/c1-5-6(3,4)7-2/h1-2H3,(H2,3,4)

> <InChI Key_QSARr>
NNKVPIKMPCQWCG-UHFFFAOYSA-N

> <LogKOC>
0.7

$$$$
100542
  -INDIGO-08031722282D

 35 37  0  0  0  0  0  0  0  0999 V2000
   -1.0284   -1.2257    0.0000 C   0  0  0  0  0  0  0  0  0  0  0  0
    0.0000    0.0000    0.0000 C   0  0  0  0  0  0  0  0  0  0  0  0
    1.3856   -0.8000    0.0000 H   0  0  0  0  0  0  0  0  0  0  0  0
   -1.0284    1.2257    0.0000 C   0  0  0  0  0  0  0  0  0  0  0  0
   -1.9353    1.3719    0.0000 H   0  0  0  0  0  0  0  0  0  0  0  0
   -1.5757    2.7291    0.0000 H   0  0  0  0  0  0  0  0  0  0  0  0
    0.5473    1.5036    0.0000 C   0  0  0  0  0  0  0  0  0  0  0  0
    0.5473    3.1035    0.0000 H   0  0  0  0  0  0  0  0  0  0  0  0
    2.1230    1.2257    0.0000 H   0  0  0  0  0  0  0  0  0  0  0  0
    0.1972   -2.2542    0.0000 C   0  0  0  0  0  0  0  0  0  0  0  0
    1.7006   -1.7069    0.0000 C   0  0  0  0  0  0  0  0  0  0  0  0
    1.9785   -0.1312    0.0000 H   0  0  0  0  0  0  0  0  0  0  0  0
    2.9265   -2.7354    0.0000 N   0  0  0  0  0  0  0  0  0  0  0  0
    2.6486   -4.3111    0.0000 C   0  0  0  0  0  0  0  0  0  0  0  0
    3.8742   -5.3396    0.0000 H   0  0  0  0  0  0  0  0  0  0  0  0
    1.1450   -4.8582    0.0000 N   0  0  0  0  0  0  0  0  0  0  0  0
   -0.0807   -3.8299    0.0000 C   0  0  0  0  0  0  0  0  0  0  0  0
   -0.6678   -4.4443    0.0000 H   0  0  0  0  0  0  0  0  0  0  0  0
   -2.2541   -2.2542    0.0000 C   0  0  0  0  0  0  0  0  0  0  0  0
   -2.2541   -3.8541    0.0000 C   0  0  0  0  0  0  0  0  0  0  0  0
   -1.5841   -4.3770    0.0000 H   0  0  0  0  0  0  0  0  0  0  0  0
   -3.6397   -4.6542    0.0000 C   0  0  0  0  0  0  0  0  0  0  0  0
   -3.6397   -6.2541    0.0000 H   0  0  0  0  0  0  0  0  0  0  0  0
   -5.0254   -3.8541    0.0000 C   0  0  0  0  0  0  0  0  0  0  0  0
   -6.4110   -4.6542    0.0000 O   0  0  0  0  0  0  0  0  0  0  0  0
   -7.7967   -3.8541    0.0000 C   0  0  0  0  0  0  0  0  0  0  0  0
   -9.1823   -4.6542    0.0000 H   0  0  0  0  0  0  0  0  0  0  0  0
   -9.1823   -3.0541    0.0000 H   0  0  0  0  0  0  0  0  0  0  0  0
   -7.7967   -5.4541    0.0000 H   0  0  0  0  0  0  0  0  0  0  0  0
   -5.0254   -2.2542    0.0000 C   0  0  0  0  0  0  0  0  0  0  0  0
   -6.4110   -1.4542    0.0000 H   0  0  0  0  0  0  0  0  0  0  0  0
   -3.6397   -1.4542    0.0000 C   0  0  0  0  0  0  0  0  0  0  0  0
   -3.6397    0.1459    0.0000 H   0  0  0  0  0  0  0  0  0  0  0  0
   -2.2541   -0.1972    0.0000 O   0  0  0  0  0  0  0  0  0  0  0  0
   -2.5320    0.6784    0.0000 H   0  0  0  0  0  0  0  0  0  0  0  0
  1  2  1  0  0  0  0
  2  3  1  0  0  0  0
  2  4  1  0  0  0  0
  4  5  1  0  0  0  0
  4  6  1  0  0  0  0
  4  7  1  0  0  0  0
  7  2  1  0  0  0  0
  7  8  1  0  0  0  0
  7  9  1  0  0  0  0
  1 10  1  0  0  0  0
 10 11  1  0  0  0  0
 11 12  1  0  0  0  0
 11 13  2  0  0  0  0
 13 14  1  0  0  0  0
 14 15  1  0  0  0  0
 14 16  2  0  0  0  0
 16 17  1  0  0  0  0
 17 10  2  0  0  0  0
 17 18  1  0  0  0  0
  1 19  1  0  0  0  0
 19 20  1  0  0  0  0
 20 21  1  0  0  0  0
 20 22  2  0  0  0  0
 22 23  1  0  0  0  0
 22 24  1  0  0  0  0
 24 25  1  0  0  0  0
 25 26  1  0  0  0  0
 26 27  1  0  0  0  0
 26 28  1  0  0  0  0
 26 29  1  0  0  0  0
 24 30  2  0  0  0  0
 30 31  1  0  0  0  0
 30 32  1  0  0  0  0
 32 19  2  0  0  0  0
 32 33  1  0  0  0  0
  1 34  1  0  0  0  0
 34 35  1  0  0  0  0
M  END
> <ChemID>
100542

> <source_casrn>
12771-68-5

> <CAS>
12771-68-5

> <SMILES>
COc1ccc(cc1)C(O)(C1CC1)c1c[n]c[n]c1

> <NAME>
ANCYMIDOL

> <preferred_name>
Ancymidol

> <iupac>
cyclopropyl(4-methoxyphenyl)pyrimidin-5-ylmethanol

> <MPID>
99805

> <dsstox_substance_id>
DTXSID2034338

> <Canonical_QSARr>
COc1ccc(cc1)C(O)(C1CC1)c1c[n]c[n]c1

> <InChI_Code_QSARr>
InChI=1S/C15H16N2O2/c1-19-14-6-4-12(5-7-14)15(18,11-2-3-11)13-8-16-10-17-9-13/h4-11,18H,2-3H2,1H3

> <InChI Key_QSARr>
HUTDUHSNJYTCAR-UHFFFAOYSA-N

> <LogKOC>
2.08

$$$$
100546
  -INDIGO-08031722282D

 25 26  0  0  0  0  0  0  0  0999 V2000
   -2.7714   -1.6000    0.0000 O   0  0  0  0  0  0  0  0  0  0  0  0
   -2.7714   -0.0000    0.0000 C   0  0  0  0  0  0  0  0  0  0  0  0
   -1.3856    0.8000    0.0000 N   0  0  0  0  0  0  0  0  0  0  0  0
   -1.3856    2.4000    0.0000 H   0  0  0  0  0  0  0  0  0  0  0  0
    0.0000   -0.0000    0.0000 C   0  0  0  0  0  0  0  0  0  0  0  0
   -0.5473   -1.5035    0.0000 H   0  0  0  0  0  0  0  0  0  0  0  0
    1.5758   -0.2778    0.0000 C   0  0  0  0  0  0  0  0  0  0  0  0
    1.5758   -1.8778    0.0000 H   0  0  0  0  0  0  0  0  0  0  0  0
    3.1514   -0.0000    0.0000 H   0  0  0  0  0  0  0  0  0  0  0  0
    1.0285    1.2257    0.0000 C   0  0  0  0  0  0  0  0  0  0  0  0
    2.4141    2.0257    0.0000 H   0  0  0  0  0  0  0  0  0  0  0  0
    0.0000    2.4513    0.0000 H   0  0  0  0  0  0  0  0  0  0  0  0
   -4.1570    0.8000    0.0000 N   0  0  0  0  0  0  0  0  0  0  0  0
   -4.1570    2.4000    0.0000 H   0  0  0  0  0  0  0  0  0  0  0  0
   -5.5425   -0.0000    0.0000 C   0  0  0  0  0  0  0  0  0  0  0  0
   -6.9281    0.8000    0.0000 C   0  0  0  0  0  0  0  0  0  0  0  0
   -6.9281    2.4000    0.0000 H   0  0  0  0  0  0  0  0  0  0  0  0
   -8.3139   -0.0000    0.0000 C   0  0  0  0  0  0  0  0  0  0  0  0
   -9.6995    0.8000    0.0000 H   0  0  0  0  0  0  0  0  0  0  0  0
   -8.3139   -1.6000    0.0000 C   0  0  0  0  0  0  0  0  0  0  0  0
   -9.6995   -2.4000    0.0000 H   0  0  0  0  0  0  0  0  0  0  0  0
   -6.9281   -2.4000    0.0000 C   0  0  0  0  0  0  0  0  0  0  0  0
   -6.9281   -4.0000    0.0000 H   0  0  0  0  0  0  0  0  0  0  0  0
   -5.5425   -1.6000    0.0000 C   0  0  0  0  0  0  0  0  0  0  0  0
   -4.1570   -2.4000    0.0000 H   0  0  0  0  0  0  0  0  0  0  0  0
  1  2  2  0  0  0  0
  2  3  1  0  0  0  0
  3  4  1  0  0  0  0
  3  5  1  0  0  0  0
  5  6  1  0  0  0  0
  5  7  1  0  0  0  0
  7  8  1  0  0  0  0
  7  9  1  0  0  0  0
  7 10  1  0  0  0  0
 10  5  1  0  0  0  0
 10 11  1  0  0  0  0
 10 12  1  0  0  0  0
  2 13  1  0  0  0  0
 13 14  1  0  0  0  0
 13 15  1  0  0  0  0
 15 16  1  0  0  0  0
 16 17  1  0  0  0  0
 16 18  2  0  0  0  0
 18 19  1  0  0  0  0
 18 20  1  0  0  0  0
 20 21  1  0  0  0  0
 20 22  2  0  0  0  0
 22 23  1  0  0  0  0
 22 24  1  0  0  0  0
 24 15  2  0  0  0  0
 24 25  1  0  0  0  0
M  END
> <ChemID>
100546

> <source_casrn>
13140-86-8

> <CAS>
13140-86-8

> <SMILES>
O=C(Nc1ccccc1)NC1CC1

> <NAME>
N-CYCLOPROPYL-N'-PHENYLUREA

> <preferred_name>
N-Cyclopropyl-N'-phenylurea

> <iupac>
1-cyclopropyl-3-phenylurea

> <MPID>
99809

> <dsstox_substance_id>
DTXSID80157026

> <Canonical_QSARr>
O=C(Nc1ccccc1)NC1CC1

> <InChI_Code_QSARr>
InChI=1S/C10H12N2O/c13-10(12-9-6-7-9)11-8-4-2-1-3-5-8/h1-5,9H,6-7H2,(H2,11,12,13)

> <InChI Key_QSARr>
GAVZUXBKQVMADB-UHFFFAOYSA-N

> <LogKOC>
1.74

$$$$
100550
  -INDIGO-08031722282D

 33 33  0  0  0  0  0  0  0  0999 V2000
    0.0000    0.0001    0.0000 P   0  0  0  0  0  0  0  0  0  0  0  0
    1.3857   -0.8000    0.0000 S   0  0  0  0  0  0  0  0  0  0  0  0
    2.7712    0.0001    0.0000 C   0  0  0  0  0  0  0  0  0  0  0  0
    3.3836    1.4783    0.0000 H   0  0  0  0  0  0  0  0  0  0  0  0
    2.1590    1.4783    0.0000 H   0  0  0  0  0  0  0  0  0  0  0  0
    4.1569   -0.8000    0.0000 C   0  0  0  0  0  0  0  0  0  0  0  0
    5.5426    0.0001    0.0000 C   0  0  0  0  0  0  0  0  0  0  0  0
    5.5426    1.6000    0.0000 H   0  0  0  0  0  0  0  0  0  0  0  0
    6.9281   -0.8000    0.0000 C   0  0  0  0  0  0  0  0  0  0  0  0
    8.3138    0.0001    0.0000 H   0  0  0  0  0  0  0  0  0  0  0  0
    6.9281   -2.4000    0.0000 C   0  0  0  0  0  0  0  0  0  0  0  0
    8.3138   -3.1999    0.0000 H   0  0  0  0  0  0  0  0  0  0  0  0
    5.5426   -3.1999    0.0000 C   0  0  0  0  0  0  0  0  0  0  0  0
    5.5426   -4.8000    0.0000 H   0  0  0  0  0  0  0  0  0  0  0  0
    4.1569   -2.4000    0.0000 C   0  0  0  0  0  0  0  0  0  0  0  0
    2.7712   -3.1999    0.0000 H   0  0  0  0  0  0  0  0  0  0  0  0
   -1.3857    0.8000    0.0000 O   0  0  0  0  0  0  0  0  0  0  0  0
   -1.3857    2.4000    0.0000 C   0  0  0  0  0  0  0  0  0  0  0  0
    0.2008    2.6089    0.0000 H   0  0  0  0  0  0  0  0  0  0  0  0
   -0.4116    3.6694    0.0000 H   0  0  0  0  0  0  0  0  0  0  0  0
   -2.7712    3.2001    0.0000 C   0  0  0  0  0  0  0  0  0  0  0  0
   -4.1569    4.0000    0.0000 H   0  0  0  0  0  0  0  0  0  0  0  0
   -2.7712    4.8000    0.0000 H   0  0  0  0  0  0  0  0  0  0  0  0
   -4.1569    2.4000    0.0000 H   0  0  0  0  0  0  0  0  0  0  0  0
   -1.3857   -0.8000    0.0000 O   0  0  0  0  0  0  0  0  0  0  0  0
   -1.3857   -2.4000    0.0000 C   0  0  0  0  0  0  0  0  0  0  0  0
   -0.4116   -3.6694    0.0000 H   0  0  0  0  0  0  0  0  0  0  0  0
    0.2008   -2.6089    0.0000 H   0  0  0  0  0  0  0  0  0  0  0  0
   -2.7712   -3.1999    0.0000 C   0  0  0  0  0  0  0  0  0  0  0  0
   -4.1569   -4.0000    0.0000 H   0  0  0  0  0  0  0  0  0  0  0  0
   -2.7712   -4.8000    0.0000 H   0  0  0  0  0  0  0  0  0  0  0  0
   -4.1569   -2.4000    0.0000 H   0  0  0  0  0  0  0  0  0  0  0  0
    0.0000    1.6000    0.0000 O   0  0  0  0  0  0  0  0  0  0  0  0
  1  2  1  0  0  0  0
  2  3  1  0  0  0  0
  3  4  1  0  0  0  0
  3  5  1  0  0  0  0
  3  6  1  0  0  0  0
  6  7  1  0  0  0  0
  7  8  1  0  0  0  0
  7  9  2  0  0  0  0
  9 10  1  0  0  0  0
  9 11  1  0  0  0  0
 11 12  1  0  0  0  0
 11 13  2  0  0  0  0
 13 14  1  0  0  0  0
 13 15  1  0  0  0  0
 15  6  2  0  0  0  0
 15 16  1  0  0  0  0
  1 17  1  0  0  0  0
 17 18  1  0  0  0  0
 18 19  1  0  0  0  0
 18 20  1  0  0  0  0
 18 21  1  0  0  0  0
 21 22  1  0  0  0  0
 21 23  1  0  0  0  0
 21 24  1  0  0  0  0
  1 25  1  0  0  0  0
 25 26  1  0  0  0  0
 26 27  1  0  0  0  0
 26 28  1  0  0  0  0
 26 29  1  0  0  0  0
 29 30  1  0  0  0  0
 29 31  1  0  0  0  0
 29 32  1  0  0  0  0
  1 33  2  0  0  0  0
M  END
> <ChemID>
100550

> <source_casrn>
13286-32-3

> <CAS>
13286-32-3

> <SMILES>
O=P(OCC)(OCC)SCc1ccccc1

> <NAME>
Kitazine

> <preferred_name>
Phosphorothioic acid, O,O-diethyl S-(phenylmethyl) ester

> <iupac>
diethoxyphosphorylsulfanylmethylbenzene

> <MPID>
99813

> <dsstox_substance_id>
DTXSID0074502

> <Canonical_QSARr>
CCOP(=O)(OCC)SCc1ccccc1

> <InChI_Code_QSARr>
InChI=1S/C11H17O3PS/c1-3-13-15(12,14-4-2)16-10-11-8-6-5-7-9-11/h5-9H,3-4,10H2,1-2H3

> <InChI Key_QSARr>
XFMJUIKWKVJNDY-UHFFFAOYSA-N

> <LogKOC>
2.4

$$$$
100555
  -INDIGO-08031722282D

 36 36  0  0  0  0  0  0  0  0999 V2000
   -1.3857    0.8000    0.0000 S   0  0  0  0  0  0  0  0  0  0  0  0
   -0.5857    2.1856    0.0000 O   0  0  0  0  0  0  0  0  0  0  0  0
   -2.1856   -0.5856    0.0000 O   0  0  0  0  0  0  0  0  0  0  0  0
   -0.0000   -0.0000    0.0000 C   0  0  0  0  0  0  0  0  0  0  0  0
    1.3857    0.8000    0.0000 C   0  0  0  0  0  0  0  0  0  0  0  0
    1.3857    2.4000    0.0000 H   0  0  0  0  0  0  0  0  0  0  0  0
    2.7714   -0.0000    0.0000 C   0  0  0  0  0  0  0  0  0  0  0  0
    4.1568    0.8000    0.0000 H   0  0  0  0  0  0  0  0  0  0  0  0
    2.7714   -1.6000    0.0000 C   0  0  0  0  0  0  0  0  0  0  0  0
    4.1568   -2.4000    0.0000 O   0  0  0  0  0  0  0  0  0  0  0  0
    5.5425   -1.6000    0.0000 P   0  0  0  0  0  0  0  0  0  0  0  0
    5.5425   -3.2000    0.0000 S   0  0  0  0  0  0  0  0  0  0  0  0
    6.9282   -2.4000    0.0000 O   0  0  0  0  0  0  0  0  0  0  0  0
    8.3139   -1.6000    0.0000 C   0  0  0  0  0  0  0  0  0  0  0  0
    8.9261   -0.1218    0.0000 H   0  0  0  0  0  0  0  0  0  0  0  0
    7.7016   -0.1218    0.0000 H   0  0  0  0  0  0  0  0  0  0  0  0
    9.6994   -2.4000    0.0000 C   0  0  0  0  0  0  0  0  0  0  0  0
   11.0851   -3.2000    0.0000 H   0  0  0  0  0  0  0  0  0  0  0  0
   11.0851   -1.6000    0.0000 H   0  0  0  0  0  0  0  0  0  0  0  0
    9.6994   -4.0000    0.0000 H   0  0  0  0  0  0  0  0  0  0  0  0
    6.9282   -0.8000    0.0000 O   0  0  0  0  0  0  0  0  0  0  0  0
    6.9282    0.8000    0.0000 C   0  0  0  0  0  0  0  0  0  0  0  0
    5.9542    2.0694    0.0000 H   0  0  0  0  0  0  0  0  0  0  0  0
    5.3418    1.0089    0.0000 H   0  0  0  0  0  0  0  0  0  0  0  0
    8.3139    1.6000    0.0000 C   0  0  0  0  0  0  0  0  0  0  0  0
    9.6994    2.4000    0.0000 H   0  0  0  0  0  0  0  0  0  0  0  0
    8.3139    3.2000    0.0000 H   0  0  0  0  0  0  0  0  0  0  0  0
    9.6994    0.8000    0.0000 H   0  0  0  0  0  0  0  0  0  0  0  0
    1.3857   -2.4000    0.0000 C   0  0  0  0  0  0  0  0  0  0  0  0
    1.3857   -4.0000    0.0000 H   0  0  0  0  0  0  0  0  0  0  0  0
   -0.0000   -1.6000    0.0000 C   0  0  0  0  0  0  0  0  0  0  0  0
   -1.3857   -2.4000    0.0000 H   0  0  0  0  0  0  0  0  0  0  0  0
   -2.7712    1.6000    0.0000 C   0  0  0  0  0  0  0  0  0  0  0  0
   -4.1569    2.4000    0.0000 H   0  0  0  0  0  0  0  0  0  0  0  0
   -4.1569    0.8000    0.0000 H   0  0  0  0  0  0  0  0  0  0  0  0
   -2.7712    3.2000    0.0000 H   0  0  0  0  0  0  0  0  0  0  0  0
  1  2  2  0  0  0  0
  1  3  2  0  0  0  0
  1  4  1  0  0  0  0
  4  5  1  0  0  0  0
  5  6  1  0  0  0  0
  5  7  2  0  0  0  0
  7  8  1  0  0  0  0
  7  9  1  0  0  0  0
  9 10  1  0  0  0  0
 10 11  1  0  0  0  0
 11 12  2  0  0  0  0
 11 13  1  0  0  0  0
 13 14  1  0  0  0  0
 14 15  1  0  0  0  0
 14 16  1  0  0  0  0
 14 17  1  0  0  0  0
 17 18  1  0  0  0  0
 17 19  1  0  0  0  0
 17 20  1  0  0  0  0
 11 21  1  0  0  0  0
 21 22  1  0  0  0  0
 22 23  1  0  0  0  0
 22 24  1  0  0  0  0
 22 25  1  0  0  0  0
 25 26  1  0  0  0  0
 25 27  1  0  0  0  0
 25 28  1  0  0  0  0
  9 29  2  0  0  0  0
 29 30  1  0  0  0  0
 29 31  1  0  0  0  0
 31  4  2  0  0  0  0
 31 32  1  0  0  0  0
  1 33  1  0  0  0  0
 33 34  1  0  0  0  0
 33 35  1  0  0  0  0
 33 36  1  0  0  0  0
M  END
> <ChemID>
100555

> <source_casrn>
14255-72-2

> <CAS>
14255-72-2

> <SMILES>
CS(=O)(=O)c1ccc(cc1)OP(=S)(OCC)OCC

> <NAME>
FENSULFOTHION SULFONE

> <preferred_name>
Fensulfothion sulfone

> <iupac>
diethoxy-(4-methylsulfonylphenoxy)-sulfanylidenephosphorane

> <MPID>
99817

> <dsstox_substance_id>
DTXSID80162079

> <Canonical_QSARr>
CS(=O)(=O)c1ccc(cc1)OP(=S)(OCC)OCC

> <InChI_Code_QSARr>
InChI=1S/C11H17O5PS2/c1-4-14-17(18,15-5-2)16-10-6-8-11(9-7-10)19(3,12)13/h6-9H,4-5H2,1-3H3

> <InChI Key_QSARr>
VTFZEBCYVXMEBB-UHFFFAOYSA-N

> <LogKOC>
2.17

$$$$
100560
  -INDIGO-08031722282D

 22 23  0  0  0  0  0  0  0  0999 V2000
   -0.0001    0.0000    0.0000 C   0  0  0  0  0  0  0  0  0  0  0  0
    1.6001   -0.0000    0.0000 C   0  0  0  0  0  0  0  0  0  0  0  0
    2.4001   -1.3856    0.0000 C   0  0  0  0  0  0  0  0  0  0  0  0
    1.6001   -2.7713    0.0000 Cl  0  0  0  0  0  0  0  0  0  0  0  0
    4.0000   -1.3856    0.0000 C   0  0  0  0  0  0  0  0  0  0  0  0
    4.8000   -2.7713    0.0000 H   0  0  0  0  0  0  0  0  0  0  0  0
    4.8000    0.0000    0.0000 C   0  0  0  0  0  0  0  0  0  0  0  0
    6.4000    0.0000    0.0000 H   0  0  0  0  0  0  0  0  0  0  0  0
    4.0000    1.3856    0.0000 C   0  0  0  0  0  0  0  0  0  0  0  0
    4.8000    2.7713    0.0000 H   0  0  0  0  0  0  0  0  0  0  0  0
    2.4001    1.3856    0.0000 C   0  0  0  0  0  0  0  0  0  0  0  0
    1.6001    2.7713    0.0000 Cl  0  0  0  0  0  0  0  0  0  0  0  0
   -0.8001    1.3856    0.0000 C   0  0  0  0  0  0  0  0  0  0  0  0
   -0.0001    2.7713    0.0000 Cl  0  0  0  0  0  0  0  0  0  0  0  0
   -2.4000    1.3856    0.0000 C   0  0  0  0  0  0  0  0  0  0  0  0
   -3.2000    2.7713    0.0000 H   0  0  0  0  0  0  0  0  0  0  0  0
   -3.2000    0.0000    0.0000 C   0  0  0  0  0  0  0  0  0  0  0  0
   -4.8000   -0.0000    0.0000 H   0  0  0  0  0  0  0  0  0  0  0  0
   -2.4000   -1.3856    0.0000 C   0  0  0  0  0  0  0  0  0  0  0  0
   -3.2000   -2.7713    0.0000 H   0  0  0  0  0  0  0  0  0  0  0  0
   -0.8001   -1.3856    0.0000 C   0  0  0  0  0  0  0  0  0  0  0  0
   -0.0001   -2.7713    0.0000 Cl  0  0  0  0  0  0  0  0  0  0  0  0
  1  2  1  0  0  0  0
  2  3  1  0  0  0  0
  3  4  1  0  0  0  0
  3  5  2  0  0  0  0
  5  6  1  0  0  0  0
  5  7  1  0  0  0  0
  7  8  1  0  0  0  0
  7  9  2  0  0  0  0
  9 10  1  0  0  0  0
  9 11  1  0  0  0  0
 11  2  2  0  0  0  0
 11 12  1  0  0  0  0
  1 13  1  0  0  0  0
 13 14  1  0  0  0  0
 13 15  2  0  0  0  0
 15 16  1  0  0  0  0
 15 17  1  0  0  0  0
 17 18  1  0  0  0  0
 17 19  2  0  0  0  0
 19 20  1  0  0  0  0
 19 21  1  0  0  0  0
 21  1  2  0  0  0  0
 21 22  1  0  0  0  0
M  END
> <ChemID>
100560

> <source_casrn>
15968-05-5

> <CAS>
15968-05-5

> <SMILES>
Clc1cccc(Cl)c1-c1c(Cl)cccc1Cl

> <NAME>
2,2',6,6'-TETRACHLOROBIPHENYL

> <preferred_name>
2,2',6,6'-Tetrachlorobiphenyl

> <iupac>
1,3-dichloro-2-(2,6-dichlorophenyl)benzene

> <MPID>
99821

> <dsstox_substance_id>
DTXSID0065983

> <Canonical_QSARr>
Clc1cccc(Cl)c1-c1c(Cl)cccc1Cl

> <InChI_Code_QSARr>
InChI=1S/C12H6Cl4/c13-7-3-1-4-8(14)11(7)12-9(15)5-2-6-10(12)16/h1-6H

> <InChI Key_QSARr>
PXAGFNRKXSYIHU-UHFFFAOYSA-N

> <LogKOC>
4.9

$$$$
100564
  -INDIGO-08031722282D

 39 40  0  0  0  0  0  0  0  0999 V2000
    6.7078   -2.2670    0.0000 C   0  0  0  0  0  0  0  0  0  0  0  0
    5.1166   -2.4343    0.0000 N   0  0  0  0  0  0  0  0  0  0  0  0
    4.0460   -1.2452    0.0000 C   0  0  0  0  0  0  0  0  0  0  0  0
    4.7970    0.1675    0.0000 O   0  0  0  0  0  0  0  0  0  0  0  0
    2.4470   -1.3011    0.0000 N   0  0  0  0  0  0  0  0  0  0  0  0
    1.6958   -2.7138    0.0000 H   0  0  0  0  0  0  0  0  0  0  0  0
    1.5989    0.0558    0.0000 C   0  0  0  0  0  0  0  0  0  0  0  0
    2.8336    1.0736    0.0000 H   0  0  0  0  0  0  0  0  0  0  0  0
    1.7523    1.6485    0.0000 H   0  0  0  0  0  0  0  0  0  0  0  0
   -0.0001    0.0001    0.0000 C   0  0  0  0  0  0  0  0  0  0  0  0
   -1.2345   -1.0177    0.0000 H   0  0  0  0  0  0  0  0  0  0  0  0
   -0.1535   -1.5926    0.0000 H   0  0  0  0  0  0  0  0  0  0  0  0
   -0.8479    1.3568    0.0000 C   0  0  0  0  0  0  0  0  0  0  0  0
    0.3868    2.3746    0.0000 H   0  0  0  0  0  0  0  0  0  0  0  0
   -0.6945    2.9495    0.0000 H   0  0  0  0  0  0  0  0  0  0  0  0
   -2.4469    1.3011    0.0000 C   0  0  0  0  0  0  0  0  0  0  0  0
   -4.0459    1.2451    0.0000 H   0  0  0  0  0  0  0  0  0  0  0  0
   -3.2947    2.6580    0.0000 H   0  0  0  0  0  0  0  0  0  0  0  0
   -3.1981   -0.1116    0.0000 H   0  0  0  0  0  0  0  0  0  0  0  0
    4.7839   -3.9992    0.0000 C   0  0  0  0  0  0  0  0  0  0  0  0
    6.1696   -4.7993    0.0000 C   0  0  0  0  0  0  0  0  0  0  0  0
    6.1696   -6.3993    0.0000 C   0  0  0  0  0  0  0  0  0  0  0  0
    7.5550   -7.1992    0.0000 H   0  0  0  0  0  0  0  0  0  0  0  0
    4.7839   -7.1992    0.0000 C   0  0  0  0  0  0  0  0  0  0  0  0
    4.7839   -8.7993    0.0000 H   0  0  0  0  0  0  0  0  0  0  0  0
    3.3982   -6.3993    0.0000 C   0  0  0  0  0  0  0  0  0  0  0  0
    2.0125   -7.1992    0.0000 H   0  0  0  0  0  0  0  0  0  0  0  0
    3.3982   -4.7993    0.0000 C   0  0  0  0  0  0  0  0  0  0  0  0
    2.0125   -3.9992    0.0000 H   0  0  0  0  0  0  0  0  0  0  0  0
    7.3585   -3.7287    0.0000 N   0  0  0  0  0  0  0  0  0  0  0  0
    7.5077   -0.8814    0.0000 N   0  0  0  0  0  0  0  0  0  0  0  0
    6.7078    0.5042    0.0000 H   0  0  0  0  0  0  0  0  0  0  0  0
    9.1077   -0.8814    0.0000 C   0  0  0  0  0  0  0  0  0  0  0  0
    9.9079   -2.2670    0.0000 O   0  0  0  0  0  0  0  0  0  0  0  0
    9.9079    0.5042    0.0000 O   0  0  0  0  0  0  0  0  0  0  0  0
   11.5077    0.5042    0.0000 C   0  0  0  0  0  0  0  0  0  0  0  0
   13.1078    0.5042    0.0000 H   0  0  0  0  0  0  0  0  0  0  0  0
   12.3079    1.8900    0.0000 H   0  0  0  0  0  0  0  0  0  0  0  0
   12.3079   -0.8814    0.0000 H   0  0  0  0  0  0  0  0  0  0  0  0
  1  2  1  0  0  0  0
  2  3  1  0  0  0  0
  3  4  2  0  0  0  0
  3  5  1  0  0  0  0
  5  6  1  0  0  0  0
  5  7  1  0  0  0  0
  7  8  1  0  0  0  0
  7  9  1  0  0  0  0
  7 10  1  0  0  0  0
 10 11  1  0  0  0  0
 10 12  1  0  0  0  0
 10 13  1  0  0  0  0
 13 14  1  0  0  0  0
 13 15  1  0  0  0  0
 13 16  1  0  0  0  0
 16 17  1  0  0  0  0
 16 18  1  0  0  0  0
 16 19  1  0  0  0  0
  2 20  1  0  0  0  0
 20 21  1  0  0  0  0
 21 22  2  0  0  0  0
 22 23  1  0  0  0  0
 22 24  1  0  0  0  0
 24 25  1  0  0  0  0
 24 26  2  0  0  0  0
 26 27  1  0  0  0  0
 26 28  1  0  0  0  0
 28 20  2  0  0  0  0
 28 29  1  0  0  0  0
 21 30  1  0  0  0  0
 30  1  2  0  0  0  0
  1 31  1  0  0  0  0
 31 32  1  0  0  0  0
 31 33  1  0  0  0  0
 33 34  2  0  0  0  0
 33 35  1  0  0  0  0
 35 36  1  0  0  0  0
 36 37  1  0  0  0  0
 36 38  1  0  0  0  0
 36 39  1  0  0  0  0
M  END
> <ChemID>
100564

> <source_casrn>
17804-35-2

> <CAS>
17804-35-2

> <SMILES>
CCCCNC(=O)[n]1c(NC(=O)OC)[n]c2ccccc12

> <NAME>
BENOMYL

> <preferred_name>
Benomyl

> <iupac>
methyl [1-(butylcarbamoyl)-1H-benzimidazol-2-yl]carbamate

> <MPID>
99825

> <dsstox_substance_id>
DTXSID5023900

> <Canonical_QSARr>
CCCCNC(=O)[n]1c(NC(=O)OC)[n]c2ccccc12

> <InChI_Code_QSARr>
InChI=1S/C14H18N4O3/c1-3-4-9-15-13(19)18-11-8-6-5-7-10(11)16-12(18)17-14(20)21-2/h5-8H,3-4,9H2,1-2H3,(H,15,19)(H,16,17,20)

> <InChI Key_QSARr>
RIOXQFHNBCKOKP-UHFFFAOYSA-N

> <LogKOC>
2.71

$$$$
100569
  -INDIGO-08031722282D

 40 41  0  0  0  0  0  0  0  0999 V2000
   -4.1236   -0.3710    0.0000 N   0  0  0  0  0  0  0  0  0  0  0  0
   -2.6620   -1.0217    0.0000 N   0  0  0  0  0  0  0  0  0  0  0  0
   -1.5913    0.1673    0.0000 C   0  0  0  0  0  0  0  0  0  0  0  0
    0.0001    0.0000    0.0000 C   0  0  0  0  0  0  0  0  0  0  0  0
    1.5913   -0.1672    0.0000 C   0  0  0  0  0  0  0  0  0  0  0  0
    3.1825   -0.3344    0.0000 H   0  0  0  0  0  0  0  0  0  0  0  0
    2.5317    1.1272    0.0000 H   0  0  0  0  0  0  0  0  0  0  0  0
    2.2421   -1.6289    0.0000 H   0  0  0  0  0  0  0  0  0  0  0  0
    0.1672    1.5912    0.0000 C   0  0  0  0  0  0  0  0  0  0  0  0
    0.3346    3.1825    0.0000 H   0  0  0  0  0  0  0  0  0  0  0  0
    1.6289    2.2420    0.0000 H   0  0  0  0  0  0  0  0  0  0  0  0
   -1.1271    2.5316    0.0000 H   0  0  0  0  0  0  0  0  0  0  0  0
   -0.1672   -1.5913    0.0000 C   0  0  0  0  0  0  0  0  0  0  0  0
   -0.3346   -3.1824    0.0000 H   0  0  0  0  0  0  0  0  0  0  0  0
    1.1271   -2.5317    0.0000 H   0  0  0  0  0  0  0  0  0  0  0  0
   -1.6289   -2.2420    0.0000 H   0  0  0  0  0  0  0  0  0  0  0  0
   -2.3913    1.5529    0.0000 O   0  0  0  0  0  0  0  0  0  0  0  0
   -3.9563    1.2203    0.0000 C   0  0  0  0  0  0  0  0  0  0  0  0
   -5.1452    2.2908    0.0000 O   0  0  0  0  0  0  0  0  0  0  0  0
   -5.5090   -1.1710    0.0000 C   0  0  0  0  0  0  0  0  0  0  0  0
   -6.8947   -0.3710    0.0000 C   0  0  0  0  0  0  0  0  0  0  0  0
   -6.8947    1.2291    0.0000 H   0  0  0  0  0  0  0  0  0  0  0  0
   -8.2804   -1.1710    0.0000 C   0  0  0  0  0  0  0  0  0  0  0  0
   -9.6660   -0.3710    0.0000 O   0  0  0  0  0  0  0  0  0  0  0  0
  -11.0517   -1.1710    0.0000 C   0  0  0  0  0  0  0  0  0  0  0  0
  -10.2517   -2.5567    0.0000 H   0  0  0  0  0  0  0  0  0  0  0  0
  -12.4373   -1.9710    0.0000 C   0  0  0  0  0  0  0  0  0  0  0  0
  -13.8230   -2.7710    0.0000 H   0  0  0  0  0  0  0  0  0  0  0  0
  -13.8230   -1.1710    0.0000 H   0  0  0  0  0  0  0  0  0  0  0  0
  -12.4373   -3.5711    0.0000 H   0  0  0  0  0  0  0  0  0  0  0  0
  -11.8517    0.2147    0.0000 C   0  0  0  0  0  0  0  0  0  0  0  0
  -12.6517    1.6002    0.0000 H   0  0  0  0  0  0  0  0  0  0  0  0
  -11.0517    1.6002    0.0000 H   0  0  0  0  0  0  0  0  0  0  0  0
  -13.4517    0.2147    0.0000 H   0  0  0  0  0  0  0  0  0  0  0  0
   -8.2804   -2.7710    0.0000 C   0  0  0  0  0  0  0  0  0  0  0  0
   -9.6660   -3.5711    0.0000 Cl  0  0  0  0  0  0  0  0  0  0  0  0
   -6.8947   -3.5711    0.0000 C   0  0  0  0  0  0  0  0  0  0  0  0
   -6.8947   -5.1710    0.0000 H   0  0  0  0  0  0  0  0  0  0  0  0
   -5.5090   -2.7710    0.0000 C   0  0  0  0  0  0  0  0  0  0  0  0
   -4.1236   -3.5711    0.0000 Cl  0  0  0  0  0  0  0  0  0  0  0  0
  1  2  1  0  0  0  0
  2  3  2  0  0  0  0
  3  4  1  0  0  0  0
  4  5  1  0  0  0  0
  5  6  1  0  0  0  0
  5  7  1  0  0  0  0
  5  8  1  0  0  0  0
  4  9  1  0  0  0  0
  9 10  1  0  0  0  0
  9 11  1  0  0  0  0
  9 12  1  0  0  0  0
  4 13  1  0  0  0  0
 13 14  1  0  0  0  0
 13 15  1  0  0  0  0
 13 16  1  0  0  0  0
  3 17  1  0  0  0  0
 17 18  1  0  0  0  0
 18  1  1  0  0  0  0
 18 19  2  0  0  0  0
  1 20  1  0  0  0  0
 20 21  1  0  0  0  0
 21 22  1  0  0  0  0
 21 23  2  0  0  0  0
 23 24  1  0  0  0  0
 24 25  1  0  0  0  0
 25 26  1  0  0  0  0
 25 27  1  0  0  0  0
 27 28  1  0  0  0  0
 27 29  1  0  0  0  0
 27 30  1  0  0  0  0
 25 31  1  0  0  0  0
 31 32  1  0  0  0  0
 31 33  1  0  0  0  0
 31 34  1  0  0  0  0
 23 35  1  0  0  0  0
 35 36  1  0  0  0  0
 35 37  2  0  0  0  0
 37 38  1  0  0  0  0
 37 39  1  0  0  0  0
 39 20  2  0  0  0  0
 39 40  1  0  0  0  0
M  END
> <ChemID>
100569

> <source_casrn>
19666-30-9

> <CAS>
19666-30-9

> <SMILES>
CC(C)Oc1cc(c(Cl)cc1Cl)N1N=C(OC1=O)C(C)(C)C

> <NAME>
OXADIAZON

> <preferred_name>
Oxadiazon

> <iupac>
5-tert-butyl-3-[2,4-dichloro-5-(propan-2-yloxy)phenyl]-1,3,4-oxadiazol-2(3H)-one

> <MPID>
99829

> <dsstox_substance_id>
DTXSID3024239

> <Canonical_QSARr>
CC(C)Oc1cc(c(Cl)cc1Cl)N1N=C(OC1=O)C(C)(C)C

> <InChI_Code_QSARr>
InChI=1S/C15H18Cl2N2O3/c1-8(2)21-12-7-11(9(16)6-10(12)17)19-14(20)22-13(18-19)15(3,4)5/h6-8H,1-5H3

> <InChI Key_QSARr>
CHNUNORXWHYHNE-UHFFFAOYSA-N

> <LogKOC>
3.51

$$$$
100573
  -INDIGO-08031722282D

 21 21  0  0  0  0  0  0  0  0999 V2000
   -4.1569    0.8000    0.0000 Cl  0  0  0  0  0  0  0  0  0  0  0  0
   -2.7713   -0.0000    0.0000 C   0  0  0  0  0  0  0  0  0  0  0  0
   -1.3856    0.8000    0.0000 C   0  0  0  0  0  0  0  0  0  0  0  0
   -1.3856    2.4000    0.0000 H   0  0  0  0  0  0  0  0  0  0  0  0
    0.0001   -0.0000    0.0000 C   0  0  0  0  0  0  0  0  0  0  0  0
    1.3857    0.8000    0.0000 N   0  0  0  0  0  0  0  0  0  0  0  0
    1.3856    2.4000    0.0000 H   0  0  0  0  0  0  0  0  0  0  0  0
    2.7712   -0.0000    0.0000 C   0  0  0  0  0  0  0  0  0  0  0  0
    2.7712   -1.6000    0.0000 O   0  0  0  0  0  0  0  0  0  0  0  0
    4.1569    0.8000    0.0000 N   0  0  0  0  0  0  0  0  0  0  0  0
    4.1569    2.4000    0.0000 H   0  0  0  0  0  0  0  0  0  0  0  0
    5.5425   -0.0000    0.0000 C   0  0  0  0  0  0  0  0  0  0  0  0
    6.9282   -0.8000    0.0000 H   0  0  0  0  0  0  0  0  0  0  0  0
    6.9282    0.8000    0.0000 H   0  0  0  0  0  0  0  0  0  0  0  0
    5.5425   -1.6000    0.0000 H   0  0  0  0  0  0  0  0  0  0  0  0
    0.0001   -1.6000    0.0000 C   0  0  0  0  0  0  0  0  0  0  0  0
    1.3856   -2.4000    0.0000 H   0  0  0  0  0  0  0  0  0  0  0  0
   -1.3856   -2.4000    0.0000 C   0  0  0  0  0  0  0  0  0  0  0  0
   -1.3856   -4.0000    0.0000 H   0  0  0  0  0  0  0  0  0  0  0  0
   -2.7713   -1.6000    0.0000 C   0  0  0  0  0  0  0  0  0  0  0  0
   -4.1569   -2.4000    0.0000 H   0  0  0  0  0  0  0  0  0  0  0  0
  1  2  1  0  0  0  0
  2  3  1  0  0  0  0
  3  4  1  0  0  0  0
  3  5  2  0  0  0  0
  5  6  1  0  0  0  0
  6  7  1  0  0  0  0
  6  8  1  0  0  0  0
  8  9  2  0  0  0  0
  8 10  1  0  0  0  0
 10 11  1  0  0  0  0
 10 12  1  0  0  0  0
 12 13  1  0  0  0  0
 12 14  1  0  0  0  0
 12 15  1  0  0  0  0
  5 16  1  0  0  0  0
 16 17  1  0  0  0  0
 16 18  2  0  0  0  0
 18 19  1  0  0  0  0
 18 20  1  0  0  0  0
 20  2  2  0  0  0  0
 20 21  1  0  0  0  0
M  END
> <ChemID>
100573

> <source_casrn>
20940-42-5

> <CAS>
20940-42-5

> <SMILES>
CNC(=O)Nc1cc(Cl)ccc1

> <NAME>
N-(3-CHLOROPHENYL)-N'-METHYLUREA

> <preferred_name>
N-(3-chlorophenyl)-N'-methylurea

> <iupac>
1-(3-chlorophenyl)-3-methylurea

> <MPID>
99833

> <dsstox_substance_id>
DTXSID70175113

> <Canonical_QSARr>
CNC(=O)Nc1cc(Cl)ccc1

> <InChI_Code_QSARr>
InChI=1S/C8H9ClN2O/c1-10-8(12)11-7-4-2-3-6(9)5-7/h2-5H,1H3,(H2,10,11,12)

> <InChI Key_QSARr>
MIRQKFUBAFNLEI-UHFFFAOYSA-N

> <LogKOC>
1.93

$$$$
100577
  -INDIGO-08031722282D

 24 24  0  0  0  0  0  0  0  0999 V2000
    1.3856    2.4000    0.0000 Cl  0  0  0  0  0  0  0  0  0  0  0  0
    0.0001    1.6000    0.0000 C   0  0  0  0  0  0  0  0  0  0  0  0
    0.0001    0.0000    0.0000 C   0  0  0  0  0  0  0  0  0  0  0  0
    1.3856   -0.8000    0.0000 C   0  0  0  0  0  0  0  0  0  0  0  0
    2.7713   -1.6000    0.0000 H   0  0  0  0  0  0  0  0  0  0  0  0
    2.7713    0.0000    0.0000 H   0  0  0  0  0  0  0  0  0  0  0  0
    1.3856   -2.4000    0.0000 H   0  0  0  0  0  0  0  0  0  0  0  0
   -1.3856   -0.8000    0.0000 C   0  0  0  0  0  0  0  0  0  0  0  0
   -1.3856   -2.4000    0.0000 H   0  0  0  0  0  0  0  0  0  0  0  0
   -2.7713    0.0000    0.0000 C   0  0  0  0  0  0  0  0  0  0  0  0
   -4.1569   -0.8000    0.0000 H   0  0  0  0  0  0  0  0  0  0  0  0
   -2.7713    1.6000    0.0000 C   0  0  0  0  0  0  0  0  0  0  0  0
   -4.1569    2.4000    0.0000 N   0  0  0  0  0  0  0  0  0  0  0  0
   -4.1569    4.0000    0.0000 H   0  0  0  0  0  0  0  0  0  0  0  0
   -5.5426    1.6000    0.0000 C   0  0  0  0  0  0  0  0  0  0  0  0
   -5.5426    0.0000    0.0000 O   0  0  0  0  0  0  0  0  0  0  0  0
   -6.9283    2.4000    0.0000 N   0  0  0  0  0  0  0  0  0  0  0  0
   -6.9283    4.0000    0.0000 H   0  0  0  0  0  0  0  0  0  0  0  0
   -8.3138    1.6000    0.0000 C   0  0  0  0  0  0  0  0  0  0  0  0
   -9.6995    0.8000    0.0000 H   0  0  0  0  0  0  0  0  0  0  0  0
   -9.6995    2.4000    0.0000 H   0  0  0  0  0  0  0  0  0  0  0  0
   -8.3138    0.0000    0.0000 H   0  0  0  0  0  0  0  0  0  0  0  0
   -1.3856    2.4000    0.0000 C   0  0  0  0  0  0  0  0  0  0  0  0
   -1.3856    4.0000    0.0000 H   0  0  0  0  0  0  0  0  0  0  0  0
  1  2  1  0  0  0  0
  2  3  1  0  0  0  0
  3  4  1  0  0  0  0
  4  5  1  0  0  0  0
  4  6  1  0  0  0  0
  4  7  1  0  0  0  0
  3  8  2  0  0  0  0
  8  9  1  0  0  0  0
  8 10  1  0  0  0  0
 10 11  1  0  0  0  0
 10 12  2  0  0  0  0
 12 13  1  0  0  0  0
 13 14  1  0  0  0  0
 13 15  1  0  0  0  0
 15 16  2  0  0  0  0
 15 17  1  0  0  0  0
 17 18  1  0  0  0  0
 17 19  1  0  0  0  0
 19 20  1  0  0  0  0
 19 21  1  0  0  0  0
 19 22  1  0  0  0  0
 12 23  1  0  0  0  0
 23  2  2  0  0  0  0
 23 24  1  0  0  0  0
M  END
> <ChemID>
100577

> <source_casrn>
22175-22-0

> <CAS>
22175-22-0

> <SMILES>
Cc1ccc(cc1Cl)NC(=O)NC

> <NAME>
N-(3-CHLORO-4-METHYLPHENYL)-N'-METHYLUREA

> <preferred_name>
N-(3-chloro-4-methylphenyl)-N'-methylurea

> <iupac>
1-(3-chloro-4-methylphenyl)-3-methylurea

> <MPID>
99837

> <dsstox_substance_id>
DTXSID20176711

> <Canonical_QSARr>
Cc1ccc(cc1Cl)NC(=O)NC

> <InChI_Code_QSARr>
InChI=1S/C9H11ClN2O/c1-6-3-4-7(5-8(6)10)12-9(13)11-2/h3-5H,1-2H3,(H2,11,12,13)

> <InChI Key_QSARr>
GUMFWXBSFOHZDC-UHFFFAOYSA-N

> <LogKOC>
2.1

$$$$
100582
  -INDIGO-08031722282D

 27 26  0  0  0  0  0  0  0  0999 V2000
    0.0000   -2.7712    0.0000 O   0  0  0  0  0  0  0  0  0  0  0  0
    0.8001   -1.3856    0.0000 C   0  0  0  0  0  0  0  0  0  0  0  0
    2.4001   -1.3856    0.0000 C   0  0  0  0  0  0  0  0  0  0  0  0
    3.2001    0.0001    0.0000 N   0  0  0  0  0  0  0  0  0  0  0  0
    4.7999    0.0001    0.0000 O   0  0  0  0  0  0  0  0  0  0  0  0
    5.5999    1.3856    0.0000 C   0  0  0  0  0  0  0  0  0  0  0  0
    4.7999    2.7713    0.0000 O   0  0  0  0  0  0  0  0  0  0  0  0
    7.2000    1.3856    0.0000 N   0  0  0  0  0  0  0  0  0  0  0  0
    8.0000    0.0001    0.0000 H   0  0  0  0  0  0  0  0  0  0  0  0
    8.0000    2.7713    0.0000 C   0  0  0  0  0  0  0  0  0  0  0  0
    8.8000    4.1569    0.0000 H   0  0  0  0  0  0  0  0  0  0  0  0
    9.6000    2.7713    0.0000 H   0  0  0  0  0  0  0  0  0  0  0  0
    7.2000    4.1569    0.0000 H   0  0  0  0  0  0  0  0  0  0  0  0
    3.1999   -2.7712    0.0000 S   0  0  0  0  0  0  0  0  0  0  0  0
    4.7999   -2.7712    0.0000 C   0  0  0  0  0  0  0  0  0  0  0  0
    5.5999   -4.1569    0.0000 H   0  0  0  0  0  0  0  0  0  0  0  0
    6.4000   -2.7712    0.0000 H   0  0  0  0  0  0  0  0  0  0  0  0
    3.9999   -4.1569    0.0000 H   0  0  0  0  0  0  0  0  0  0  0  0
    0.0000    0.0001    0.0000 N   0  0  0  0  0  0  0  0  0  0  0  0
    0.8001    1.3856    0.0000 C   0  0  0  0  0  0  0  0  0  0  0  0
    1.6001    2.7713    0.0000 H   0  0  0  0  0  0  0  0  0  0  0  0
    0.0000    2.7713    0.0000 H   0  0  0  0  0  0  0  0  0  0  0  0
    2.4001    1.3856    0.0000 H   0  0  0  0  0  0  0  0  0  0  0  0
   -1.6000    0.0001    0.0000 C   0  0  0  0  0  0  0  0  0  0  0  0
   -3.2000    0.0001    0.0000 H   0  0  0  0  0  0  0  0  0  0  0  0
   -2.4000   -1.3856    0.0000 H   0  0  0  0  0  0  0  0  0  0  0  0
   -2.4000    1.3856    0.0000 H   0  0  0  0  0  0  0  0  0  0  0  0
  1  2  2  0  0  0  0
  2  3  1  0  0  0  0
  3  4  2  0  0  0  0
  4  5  1  0  0  0  0
  5  6  1  0  0  0  0
  6  7  2  0  0  0  0
  6  8  1  0  0  0  0
  8  9  1  0  0  0  0
  8 10  1  0  0  0  0
 10 11  1  0  0  0  0
 10 12  1  0  0  0  0
 10 13  1  0  0  0  0
  3 14  1  0  0  0  0
 14 15  1  0  0  0  0
 15 16  1  0  0  0  0
 15 17  1  0  0  0  0
 15 18  1  0  0  0  0
  2 19  1  0  0  0  0
 19 20  1  0  0  0  0
 20 21  1  0  0  0  0
 20 22  1  0  0  0  0
 20 23  1  0  0  0  0
 19 24  1  0  0  0  0
 24 25  1  0  0  0  0
 24 26  1  0  0  0  0
 24 27  1  0  0  0  0
M  END
> <ChemID>
100582

> <source_casrn>
23135-22-0

> <CAS>
NOCAS_860293

> <SMILES>
CNC(=O)ON=C(SC)C(=O)N(C)C

> <NAME>
OXAMYL

> <preferred_name>
Oxamyl

> <iupac>
methyl 2-(dimethylamino)-N-[(methylcarbamoyl)oxy]-2-oxoethanimidothioate

> <MPID>
99842

> <dsstox_substance_id>
DTXSID10860293

> <Canonical_QSARr>
CNC(=O)ON=C(SC)C(=O)N(C)C

> <InChI_Code_QSARr>
InChI=1S/C7H13N3O3S/c1-8-7(12)13-9-5(14-4)6(11)10(2)3/h1-4H3,(H,8,12)/b9-5-

> <InChI Key_QSARr>
KZAUOCCYDRDERY-UITAMQMPSA-N

> <LogKOC>
1.0

$$$$
100584
  -INDIGO-08031722282D

 31 31  0  0  0  0  0  0  0  0999 V2000
   -1.3857   -0.8001    0.0000 C   0  0  0  0  0  0  0  0  0  0  0  0
   -1.3857   -2.4001    0.0000 H   0  0  0  0  0  0  0  0  0  0  0  0
    0.0001    0.0000    0.0000 N   0  0  0  0  0  0  0  0  0  0  0  0
    1.3857   -0.8001    0.0000 C   0  0  0  0  0  0  0  0  0  0  0  0
    2.7713   -1.6000    0.0000 H   0  0  0  0  0  0  0  0  0  0  0  0
    2.7713    0.0000    0.0000 H   0  0  0  0  0  0  0  0  0  0  0  0
    1.3857   -2.4001    0.0000 H   0  0  0  0  0  0  0  0  0  0  0  0
    0.0001    1.6000    0.0000 C   0  0  0  0  0  0  0  0  0  0  0  0
    0.0001    3.2000    0.0000 H   0  0  0  0  0  0  0  0  0  0  0  0
    1.3857    2.4001    0.0000 H   0  0  0  0  0  0  0  0  0  0  0  0
   -1.3857    2.4001    0.0000 H   0  0  0  0  0  0  0  0  0  0  0  0
   -2.7713    0.0000    0.0000 N   0  0  0  0  0  0  0  0  0  0  0  0
   -4.1569   -0.7999    0.0000 C   0  0  0  0  0  0  0  0  0  0  0  0
   -5.5424    0.0000    0.0000 C   0  0  0  0  0  0  0  0  0  0  0  0
   -5.5427    1.6000    0.0000 H   0  0  0  0  0  0  0  0  0  0  0  0
   -6.9283   -0.7999    0.0000 C   0  0  0  0  0  0  0  0  0  0  0  0
   -8.3138    0.0000    0.0000 O   0  0  0  0  0  0  0  0  0  0  0  0
   -9.6994   -0.7999    0.0000 C   0  0  0  0  0  0  0  0  0  0  0  0
   -9.6994   -2.3999    0.0000 O   0  0  0  0  0  0  0  0  0  0  0  0
  -11.0853    0.0000    0.0000 N   0  0  0  0  0  0  0  0  0  0  0  0
  -11.0853    1.6000    0.0000 H   0  0  0  0  0  0  0  0  0  0  0  0
  -12.4708   -0.7999    0.0000 C   0  0  0  0  0  0  0  0  0  0  0  0
  -13.8564   -1.6000    0.0000 H   0  0  0  0  0  0  0  0  0  0  0  0
  -13.8564    0.0000    0.0000 H   0  0  0  0  0  0  0  0  0  0  0  0
  -12.4708   -2.3999    0.0000 H   0  0  0  0  0  0  0  0  0  0  0  0
   -6.9283   -2.3999    0.0000 C   0  0  0  0  0  0  0  0  0  0  0  0
   -8.3138   -3.2000    0.0000 H   0  0  0  0  0  0  0  0  0  0  0  0
   -5.5424   -3.2000    0.0000 C   0  0  0  0  0  0  0  0  0  0  0  0
   -5.5427   -4.8000    0.0000 H   0  0  0  0  0  0  0  0  0  0  0  0
   -4.1569   -2.3999    0.0000 C   0  0  0  0  0  0  0  0  0  0  0  0
   -2.7713   -3.2000    0.0000 H   0  0  0  0  0  0  0  0  0  0  0  0
  1  2  1  0  0  0  0
  1  3  1  0  0  0  0
  3  4  1  0  0  0  0
  4  5  1  0  0  0  0
  4  6  1  0  0  0  0
  4  7  1  0  0  0  0
  3  8  1  0  0  0  0
  8  9  1  0  0  0  0
  8 10  1  0  0  0  0
  8 11  1  0  0  0  0
  1 12  2  0  0  0  0
 12 13  1  0  0  0  0
 13 14  1  0  0  0  0
 14 15  1  0  0  0  0
 14 16  2  0  0  0  0
 16 17  1  0  0  0  0
 17 18  1  0  0  0  0
 18 19  2  0  0  0  0
 18 20  1  0  0  0  0
 20 21  1  0  0  0  0
 20 22  1  0  0  0  0
 22 23  1  0  0  0  0
 22 24  1  0  0  0  0
 22 25  1  0  0  0  0
 16 26  1  0  0  0  0
 26 27  1  0  0  0  0
 26 28  2  0  0  0  0
 28 29  1  0  0  0  0
 28 30  1  0  0  0  0
 30 13  2  0  0  0  0
 30 31  1  0  0  0  0
M  END
> <ChemID>
100584

> <source_casrn>
23422-53-9

> <CAS>
23422-53-9

> <SMILES>
Cl.CNC(=O)Oc1cc(ccc1)N=CN(C)C

> <NAME>
FORMETANATE HYDROCHLORIDE

> <preferred_name>
Formetanate hydrochloride

> <iupac>
3-{[(dimethylamino)methylidene]amino}phenyl methylcarbamate hydrochloride (1:1)

> <MPID>
99844

> <dsstox_substance_id>
DTXSID4032405

> <Canonical_QSARr>
CNC(=O)Oc1cc(ccc1)N=CN(C)C

> <InChI_Code_QSARr>
InChI=1S/C11H15N3O2/c1-12-11(15)16-10-6-4-5-9(7-10)13-8-14(2)3/h4-8H,1-3H3,(H,12,15)/b13-8+

> <InChI Key_QSARr>
RMFNNCGOSPBBAD-MDWZMJQESA-N

> <LogKOC>
2.44

$$$$
100587
  -INDIGO-08031722282D

 27 27  0  0  0  0  0  0  0  0999 V2000
    0.0000   -1.6000    0.0000 C   0  0  0  0  0  0  0  0  0  0  0  0
    0.0000   -3.2000    0.0000 H   0  0  0  0  0  0  0  0  0  0  0  0
    1.3856   -2.4001    0.0000 H   0  0  0  0  0  0  0  0  0  0  0  0
   -1.3856   -2.4001    0.0000 H   0  0  0  0  0  0  0  0  0  0  0  0
    0.0000    0.0000    0.0000 C   0  0  0  0  0  0  0  0  0  0  0  0
   -1.6000    0.0000    0.0000 N   0  0  0  0  0  0  0  0  0  0  0  0
   -2.4000   -1.3856    0.0000 H   0  0  0  0  0  0  0  0  0  0  0  0
   -2.4000    1.3856    0.0000 C   0  0  0  0  0  0  0  0  0  0  0  0
   -1.6000    2.7713    0.0000 O   0  0  0  0  0  0  0  0  0  0  0  0
   -4.0000    1.3856    0.0000 C   0  0  0  0  0  0  0  0  0  0  0  0
   -4.8000    2.7713    0.0000 C   0  0  0  0  0  0  0  0  0  0  0  0
   -4.0000    4.1569    0.0000 H   0  0  0  0  0  0  0  0  0  0  0  0
   -6.4000    2.7713    0.0000 C   0  0  0  0  0  0  0  0  0  0  0  0
   -7.2000    4.1569    0.0000 Cl  0  0  0  0  0  0  0  0  0  0  0  0
   -7.2000    1.3856    0.0000 C   0  0  0  0  0  0  0  0  0  0  0  0
   -8.8000    1.3856    0.0000 H   0  0  0  0  0  0  0  0  0  0  0  0
   -6.4000    0.0000    0.0000 C   0  0  0  0  0  0  0  0  0  0  0  0
   -7.2000   -1.3856    0.0000 Cl  0  0  0  0  0  0  0  0  0  0  0  0
   -4.8000    0.0000    0.0000 C   0  0  0  0  0  0  0  0  0  0  0  0
   -4.0000   -1.3856    0.0000 H   0  0  0  0  0  0  0  0  0  0  0  0
    0.0000    1.6000    0.0000 C   0  0  0  0  0  0  0  0  0  0  0  0
    0.0000    3.2000    0.0000 C   0  0  0  0  0  0  0  0  0  0  0  0
    0.0000    4.8000    0.0000 H   0  0  0  0  0  0  0  0  0  0  0  0
    1.6000    0.0000    0.0000 C   0  0  0  0  0  0  0  0  0  0  0  0
    3.2000    0.0000    0.0000 H   0  0  0  0  0  0  0  0  0  0  0  0
    2.4000   -1.3856    0.0000 H   0  0  0  0  0  0  0  0  0  0  0  0
    2.4000    1.3856    0.0000 H   0  0  0  0  0  0  0  0  0  0  0  0
  1  2  1  0  0  0  0
  1  3  1  0  0  0  0
  1  4  1  0  0  0  0
  1  5  1  0  0  0  0
  5  6  1  0  0  0  0
  6  7  1  0  0  0  0
  6  8  1  0  0  0  0
  8  9  2  0  0  0  0
  8 10  1  0  0  0  0
 10 11  1  0  0  0  0
 11 12  1  0  0  0  0
 11 13  2  0  0  0  0
 13 14  1  0  0  0  0
 13 15  1  0  0  0  0
 15 16  1  0  0  0  0
 15 17  2  0  0  0  0
 17 18  1  0  0  0  0
 17 19  1  0  0  0  0
 19 10  2  0  0  0  0
 19 20  1  0  0  0  0
  5 21  1  0  0  0  0
 21 22  3  0  0  0  0
 22 23  1  0  0  0  0
  5 24  1  0  0  0  0
 24 25  1  0  0  0  0
 24 26  1  0  0  0  0
 24 27  1  0  0  0  0
M  END
> <ChemID>
100587

> <source_casrn>
23950-58-5

> <CAS>
23950-58-5

> <SMILES>
CC(C)(C#C)NC(=O)c1cc(Cl)cc(Cl)c1

> <NAME>
PRONAMIDE

> <preferred_name>
Propyzamide

> <iupac>
3,5-dichloro-N-(2-methylbut-3-yn-2-yl)benzamide

> <MPID>
99847

> <dsstox_substance_id>
DTXSID2020420

> <Canonical_QSARr>
CC(C)(C#C)NC(=O)c1cc(Cl)cc(Cl)c1

> <InChI_Code_QSARr>
InChI=1S/C12H11Cl2NO/c1-4-12(2,3)15-11(16)8-5-9(13)7-10(14)6-8/h1,5-7H,2-3H3,(H,15,16)

> <InChI Key_QSARr>
PHNUZKMIPFFYSO-UHFFFAOYSA-N

> <LogKOC>
2.31

$$$$
100592
  -INDIGO-08031722282D

 28 29  0  0  0  0  0  0  0  0999 V2000
    2.4000    1.3856    0.0000 S   0  0  0  0  0  0  0  0  0  0  0  0
    1.6000   -0.0000    0.0000 N   0  0  0  0  0  0  0  0  0  0  0  0
    0.0001   -0.0000    0.0000 C   0  0  0  0  0  0  0  0  0  0  0  0
    0.0001    1.6000    0.0000 H   0  0  0  0  0  0  0  0  0  0  0  0
   -1.5757    0.2778    0.0000 C   0  0  0  0  0  0  0  0  0  0  0  0
   -3.1514    0.5557    0.0000 H   0  0  0  0  0  0  0  0  0  0  0  0
   -2.6041   -0.9478    0.0000 H   0  0  0  0  0  0  0  0  0  0  0  0
   -2.1228    1.7813    0.0000 H   0  0  0  0  0  0  0  0  0  0  0  0
    0.0001   -1.6000    0.0000 C   0  0  0  0  0  0  0  0  0  0  0  0
    0.0001   -3.2000    0.0000 H   0  0  0  0  0  0  0  0  0  0  0  0
   -1.3857   -2.4000    0.0000 H   0  0  0  0  0  0  0  0  0  0  0  0
   -1.3857   -0.8000    0.0000 H   0  0  0  0  0  0  0  0  0  0  0  0
    2.4000   -1.3857    0.0000 C   0  0  0  0  0  0  0  0  0  0  0  0
    1.6000   -2.7713    0.0000 O   0  0  0  0  0  0  0  0  0  0  0  0
    3.9999   -1.3857    0.0000 C   0  0  0  0  0  0  0  0  0  0  0  0
    4.8000   -0.0000    0.0000 C   0  0  0  0  0  0  0  0  0  0  0  0
    6.4001   -0.0000    0.0000 C   0  0  0  0  0  0  0  0  0  0  0  0
    7.1999    1.3856    0.0000 H   0  0  0  0  0  0  0  0  0  0  0  0
    7.1999   -1.3857    0.0000 C   0  0  0  0  0  0  0  0  0  0  0  0
    8.8000   -1.3857    0.0000 H   0  0  0  0  0  0  0  0  0  0  0  0
    6.4001   -2.7713    0.0000 C   0  0  0  0  0  0  0  0  0  0  0  0
    7.1999   -4.1569    0.0000 H   0  0  0  0  0  0  0  0  0  0  0  0
    4.8000   -2.7713    0.0000 C   0  0  0  0  0  0  0  0  0  0  0  0
    3.9999   -4.1569    0.0000 H   0  0  0  0  0  0  0  0  0  0  0  0
    3.9999    1.3856    0.0000 N   0  0  0  0  0  0  0  0  0  0  0  0
    4.8000    2.7713    0.0000 H   0  0  0  0  0  0  0  0  0  0  0  0
    2.6778    2.9613    0.0000 O   0  0  0  0  0  0  0  0  0  0  0  0
    1.0144    2.1856    0.0000 O   0  0  0  0  0  0  0  0  0  0  0  0
  1  2  1  0  0  0  0
  2  3  1  0  0  0  0
  3  4  1  0  0  0  0
  3  5  1  0  0  0  0
  5  6  1  0  0  0  0
  5  7  1  0  0  0  0
  5  8  1  0  0  0  0
  3  9  1  0  0  0  0
  9 10  1  0  0  0  0
  9 11  1  0  0  0  0
  9 12  1  0  0  0  0
  2 13  1  0  0  0  0
 13 14  2  0  0  0  0
 13 15  1  0  0  0  0
 15 16  1  0  0  0  0
 16 17  2  0  0  0  0
 17 18  1  0  0  0  0
 17 19  1  0  0  0  0
 19 20  1  0  0  0  0
 19 21  2  0  0  0  0
 21 22  1  0  0  0  0
 21 23  1  0  0  0  0
 23 15  2  0  0  0  0
 23 24  1  0  0  0  0
 16 25  1  0  0  0  0
 25  1  1  0  0  0  0
 25 26  1  0  0  0  0
  1 27  2  0  0  0  0
  1 28  2  0  0  0  0
M  END
> <ChemID>
100592

> <source_casrn>
25057-89-0

> <CAS>
25057-89-0

> <SMILES>
CC(C)N1C(=O)c2ccccc2NS1(=O)=O

> <NAME>
BENTAZONE

> <preferred_name>
Bentazone

> <iupac>
3-(propan-2-yl)-1H-2,1,3-benzothiadiazin-4(3H)-one 2,2-dioxide

> <MPID>
99852

> <dsstox_substance_id>
DTXSID0023901

> <Canonical_QSARr>
CC(C)N1C(=O)c2ccccc2NS1(=O)=O

> <InChI_Code_QSARr>
InChI=1S/C10H12N2O3S/c1-7(2)12-10(13)8-5-3-4-6-9(8)11-16(12,14)15/h3-7,11H,1-2H3

> <InChI Key_QSARr>
ZOMSMJKLGFBRBS-UHFFFAOYSA-N

> <LogKOC>
1.52

$$$$
100599
  -INDIGO-08031722282D

 37 38  0  0  0  0  0  0  0  0999 V2000
   -7.0643   -0.4944    0.0000 S   0  0  0  0  0  0  0  0  0  0  0  0
   -5.6787    0.3056    0.0000 O   0  0  0  0  0  0  0  0  0  0  0  0
   -4.2929   -0.4944    0.0000 C   0  0  0  0  0  0  0  0  0  0  0  0
   -2.9073    0.3056    0.0000 C   0  0  0  0  0  0  0  0  0  0  0  0
   -3.1852    1.8813    0.0000 H   0  0  0  0  0  0  0  0  0  0  0  0
   -1.5216   -0.4944    0.0000 C   0  0  0  0  0  0  0  0  0  0  0  0
   -1.5216   -2.0945    0.0000 C   0  0  0  0  0  0  0  0  0  0  0  0
    0.0001   -2.5888    0.0000 O   0  0  0  0  0  0  0  0  0  0  0  0
    0.9405   -1.2945    0.0000 C   0  0  0  0  0  0  0  0  0  0  0  0
    2.4240   -0.6951    0.0000 H   0  0  0  0  0  0  0  0  0  0  0  0
    0.0001   -0.0000    0.0000 C   0  0  0  0  0  0  0  0  0  0  0  0
   -0.6508    1.4617    0.0000 C   0  0  0  0  0  0  0  0  0  0  0  0
    0.2897    2.7561    0.0000 H   0  0  0  0  0  0  0  0  0  0  0  0
   -1.3015    2.9233    0.0000 H   0  0  0  0  0  0  0  0  0  0  0  0
   -2.2419    1.6289    0.0000 H   0  0  0  0  0  0  0  0  0  0  0  0
    1.3857    0.7999    0.0000 C   0  0  0  0  0  0  0  0  0  0  0  0
    2.7713    1.5999    0.0000 H   0  0  0  0  0  0  0  0  0  0  0  0
    1.3857    2.4001    0.0000 H   0  0  0  0  0  0  0  0  0  0  0  0
    2.8891    0.2528    0.0000 H   0  0  0  0  0  0  0  0  0  0  0  0
    2.1294   -2.3651    0.0000 O   0  0  0  0  0  0  0  0  0  0  0  0
    1.7967   -3.9300    0.0000 C   0  0  0  0  0  0  0  0  0  0  0  0
    0.2017   -3.8045    0.0000 H   0  0  0  0  0  0  0  0  0  0  0  0
    0.5801   -4.9692    0.0000 H   0  0  0  0  0  0  0  0  0  0  0  0
    2.9858   -5.0006    0.0000 C   0  0  0  0  0  0  0  0  0  0  0  0
    4.1749   -6.0712    0.0000 H   0  0  0  0  0  0  0  0  0  0  0  0
    2.6531   -6.5657    0.0000 H   0  0  0  0  0  0  0  0  0  0  0  0
    4.5076   -4.5063    0.0000 H   0  0  0  0  0  0  0  0  0  0  0  0
   -2.9073   -2.8945    0.0000 C   0  0  0  0  0  0  0  0  0  0  0  0
   -2.9073   -4.4944    0.0000 H   0  0  0  0  0  0  0  0  0  0  0  0
   -4.2929   -2.0945    0.0000 C   0  0  0  0  0  0  0  0  0  0  0  0
   -5.6787   -2.8945    0.0000 H   0  0  0  0  0  0  0  0  0  0  0  0
   -7.8643    0.8912    0.0000 O   0  0  0  0  0  0  0  0  0  0  0  0
   -6.2642   -1.8800    0.0000 O   0  0  0  0  0  0  0  0  0  0  0  0
   -8.4499   -1.2945    0.0000 C   0  0  0  0  0  0  0  0  0  0  0  0
   -9.8355   -2.0945    0.0000 H   0  0  0  0  0  0  0  0  0  0  0  0
   -9.8355   -0.4944    0.0000 H   0  0  0  0  0  0  0  0  0  0  0  0
   -8.4499   -2.8945    0.0000 H   0  0  0  0  0  0  0  0  0  0  0  0
  1  2  1  0  0  0  0
  2  3  1  0  0  0  0
  3  4  1  0  0  0  0
  4  5  1  0  0  0  0
  4  6  2  0  0  0  0
  6  7  1  0  0  0  0
  7  8  1  0  0  0  0
  8  9  1  0  0  0  0
  9 10  1  0  0  0  0
  9 11  1  0  0  0  0
 11  6  1  0  0  0  0
 11 12  1  0  0  0  0
 12 13  1  0  0  0  0
 12 14  1  0  0  0  0
 12 15  1  0  0  0  0
 11 16  1  0  0  0  0
 16 17  1  0  0  0  0
 16 18  1  0  0  0  0
 16 19  1  0  0  0  0
  9 20  1  0  0  0  0
 20 21  1  0  0  0  0
 21 22  1  0  0  0  0
 21 23  1  0  0  0  0
 21 24  1  0  0  0  0
 24 25  1  0  0  0  0
 24 26  1  0  0  0  0
 24 27  1  0  0  0  0
  7 28  2  0  0  0  0
 28 29  1  0  0  0  0
 28 30  1  0  0  0  0
 30  3  2  0  0  0  0
 30 31  1  0  0  0  0
  1 32  2  0  0  0  0
  1 33  2  0  0  0  0
  1 34  1  0  0  0  0
 34 35  1  0  0  0  0
 34 36  1  0  0  0  0
 34 37  1  0  0  0  0
M  END
> <ChemID>
100599

> <source_casrn>
26225-79-6

> <CAS>
26225-79-6

> <SMILES>
CCOC1Oc2ccc(cc2C1(C)C)OS(C)(=O)=O

> <NAME>
ETHOFUMESATE

> <preferred_name>
Ethofumesate

> <iupac>
2-ethoxy-3,3-dimethyl-2,3-dihydro-1-benzofuran-5-yl methanesulfonate

> <MPID>
99857

> <dsstox_substance_id>
DTXSID8034580

> <Canonical_QSARr>
CCOC1Oc2ccc(cc2C1(C)C)OS(C)(=O)=O

> <InChI_Code_QSARr>
InChI=1S/C13H18O5S/c1-5-16-12-13(2,3)10-8-9(18-19(4,14)15)6-7-11(10)17-12/h6-8,12H,5H2,1-4H3

> <InChI Key_QSARr>
IRCMYGHHKLLGHV-UHFFFAOYSA-N

> <LogKOC>
2.53

$$$$
100603
  -INDIGO-08031722282D

 36 36  0  0  0  0  0  0  0  0999 V2000
   -3.1036    0.5473    0.0000 C   0  0  0  0  0  0  0  0  0  0  0  0
   -1.6000    0.0001    0.0000 C   0  0  0  0  0  0  0  0  0  0  0  0
   -1.3222    1.5757    0.0000 H   0  0  0  0  0  0  0  0  0  0  0  0
    0.0000    0.0001    0.0000 N   0  0  0  0  0  0  0  0  0  0  0  0
    0.8001    1.3857    0.0000 C   0  0  0  0  0  0  0  0  0  0  0  0
   -0.4256    2.4140    0.0000 H   0  0  0  0  0  0  0  0  0  0  0  0
    1.0779    2.9614    0.0000 H   0  0  0  0  0  0  0  0  0  0  0  0
    2.3999    1.3857    0.0000 C   0  0  0  0  0  0  0  0  0  0  0  0
    2.1221    2.9614    0.0000 H   0  0  0  0  0  0  0  0  0  0  0  0
    3.9035    1.9329    0.0000 H   0  0  0  0  0  0  0  0  0  0  0  0
    3.2000    0.0001    0.0000 N   0  0  0  0  0  0  0  0  0  0  0  0
    4.8000    0.0001    0.0000 C   0  0  0  0  0  0  0  0  0  0  0  0
    4.5222   -1.5757    0.0000 H   0  0  0  0  0  0  0  0  0  0  0  0
    6.3036   -0.5473    0.0000 C   0  0  0  0  0  0  0  0  0  0  0  0
    7.8070   -1.0945    0.0000 Cl  0  0  0  0  0  0  0  0  0  0  0  0
    6.5813   -2.1230    0.0000 Cl  0  0  0  0  0  0  0  0  0  0  0  0
    7.5291    0.4813    0.0000 Cl  0  0  0  0  0  0  0  0  0  0  0  0
    5.0779    1.5757    0.0000 N   0  0  0  0  0  0  0  0  0  0  0  0
    4.5306    3.0792    0.0000 H   0  0  0  0  0  0  0  0  0  0  0  0
    6.4634    2.3757    0.0000 C   0  0  0  0  0  0  0  0  0  0  0  0
    7.8491    1.5757    0.0000 H   0  0  0  0  0  0  0  0  0  0  0  0
    6.4634    3.9757    0.0000 O   0  0  0  0  0  0  0  0  0  0  0  0
    2.3999   -1.3857    0.0000 C   0  0  0  0  0  0  0  0  0  0  0  0
    3.6256   -2.4141    0.0000 H   0  0  0  0  0  0  0  0  0  0  0  0
    2.1221   -2.9614    0.0000 H   0  0  0  0  0  0  0  0  0  0  0  0
    0.8001   -1.3857    0.0000 C   0  0  0  0  0  0  0  0  0  0  0  0
    1.0779   -2.9614    0.0000 H   0  0  0  0  0  0  0  0  0  0  0  0
   -0.7035   -1.9329    0.0000 H   0  0  0  0  0  0  0  0  0  0  0  0
   -1.8779   -1.5757    0.0000 N   0  0  0  0  0  0  0  0  0  0  0  0
   -1.3306   -3.0792    0.0000 H   0  0  0  0  0  0  0  0  0  0  0  0
   -3.2634   -2.3757    0.0000 C   0  0  0  0  0  0  0  0  0  0  0  0
   -4.6491   -1.5757    0.0000 H   0  0  0  0  0  0  0  0  0  0  0  0
   -3.2634   -3.9757    0.0000 O   0  0  0  0  0  0  0  0  0  0  0  0
   -4.6070    1.0945    0.0000 Cl  0  0  0  0  0  0  0  0  0  0  0  0
   -3.3813    2.1230    0.0000 Cl  0  0  0  0  0  0  0  0  0  0  0  0
   -4.3291   -0.4813    0.0000 Cl  0  0  0  0  0  0  0  0  0  0  0  0
  1  2  1  0  0  0  0
  2  3  1  0  0  0  0
  2  4  1  0  0  0  0
  4  5  1  0  0  0  0
  5  6  1  0  0  0  0
  5  7  1  0  0  0  0
  5  8  1  0  0  0  0
  8  9  1  0  0  0  0
  8 10  1  0  0  0  0
  8 11  1  0  0  0  0
 11 12  1  0  0  0  0
 12 13  1  0  0  0  0
 12 14  1  0  0  0  0
 14 15  1  0  0  0  0
 14 16  1  0  0  0  0
 14 17  1  0  0  0  0
 12 18  1  0  0  0  0
 18 19  1  0  0  0  0
 18 20  1  0  0  0  0
 20 21  1  0  0  0  0
 20 22  2  0  0  0  0
 11 23  1  0  0  0  0
 23 24  1  0  0  0  0
 23 25  1  0  0  0  0
 23 26  1  0  0  0  0
 26  4  1  0  0  0  0
 26 27  1  0  0  0  0
 26 28  1  0  0  0  0
  2 29  1  0  0  0  0
 29 30  1  0  0  0  0
 29 31  1  0  0  0  0
 31 32  1  0  0  0  0
 31 33  2  0  0  0  0
  1 34  1  0  0  0  0
  1 35  1  0  0  0  0
  1 36  1  0  0  0  0
M  END
> <ChemID>
100603

> <source_casrn>
26644-46-2

> <CAS>
26644-46-2

> <SMILES>
O=CNC(N1CCN(CC1)C(NC=O)C(Cl)(Cl)Cl)C(Cl)(Cl)Cl

> <NAME>
TRIFORINE

> <preferred_name>
Triforine

> <iupac>
N,N'-[piperazine-1,4-diylbis(2,2,2-trichloroethane-1,1-diyl)]diformamide

> <MPID>
99861

> <dsstox_substance_id>
DTXSID5032654

> <Canonical_QSARr>
O=CNC(N1CCN(CC1)C(NC=O)C(Cl)(Cl)Cl)C(Cl)(Cl)Cl

> <InChI_Code_QSARr>
InChI=1S/C10H14Cl6N4O2/c11-9(12,13)7(17-5-21)19-1-2-20(4-3-19)8(18-6-22)10(14,15)16/h5-8H,1-4H2,(H,17,21)(H,18,22)

> <InChI Key_QSARr>
RROQIUMZODEXOR-UHFFFAOYSA-N

> <LogKOC>
2.3

$$$$
100608
  -INDIGO-08031722282D

 28 28  0  0  0  0  0  0  0  0999 V2000
   -8.3138    0.0000    0.0000 O   0  0  0  0  0  0  0  0  0  0  0  0
   -6.9281   -0.8001    0.0000 C   0  0  0  0  0  0  0  0  0  0  0  0
   -5.5426    0.0000    0.0000 C   0  0  0  0  0  0  0  0  0  0  0  0
   -5.5426    1.6000    0.0000 H   0  0  0  0  0  0  0  0  0  0  0  0
   -4.1568   -0.7999    0.0000 C   0  0  0  0  0  0  0  0  0  0  0  0
   -2.7713    0.0000    0.0000 N   0  0  0  0  0  0  0  0  0  0  0  0
   -2.7713    1.6000    0.0000 H   0  0  0  0  0  0  0  0  0  0  0  0
   -1.3855   -0.7999    0.0000 C   0  0  0  0  0  0  0  0  0  0  0  0
   -1.3855   -2.3999    0.0000 O   0  0  0  0  0  0  0  0  0  0  0  0
    0.0000    0.0000    0.0000 N   0  0  0  0  0  0  0  0  0  0  0  0
    1.3857   -0.7999    0.0000 C   0  0  0  0  0  0  0  0  0  0  0  0
    2.7713   -1.6000    0.0000 H   0  0  0  0  0  0  0  0  0  0  0  0
    2.7713    0.0000    0.0000 H   0  0  0  0  0  0  0  0  0  0  0  0
    1.3857   -2.3999    0.0000 H   0  0  0  0  0  0  0  0  0  0  0  0
    0.0000    1.6000    0.0000 C   0  0  0  0  0  0  0  0  0  0  0  0
    0.0000    3.2000    0.0000 H   0  0  0  0  0  0  0  0  0  0  0  0
    1.3857    2.4001    0.0000 H   0  0  0  0  0  0  0  0  0  0  0  0
   -1.3855    2.4001    0.0000 H   0  0  0  0  0  0  0  0  0  0  0  0
   -4.1568   -2.4001    0.0000 C   0  0  0  0  0  0  0  0  0  0  0  0
   -2.7713   -3.2000    0.0000 H   0  0  0  0  0  0  0  0  0  0  0  0
   -5.5426   -3.2000    0.0000 C   0  0  0  0  0  0  0  0  0  0  0  0
   -5.5426   -4.8000    0.0000 H   0  0  0  0  0  0  0  0  0  0  0  0
   -6.9281   -2.4001    0.0000 C   0  0  0  0  0  0  0  0  0  0  0  0
   -8.3138   -3.2000    0.0000 H   0  0  0  0  0  0  0  0  0  0  0  0
   -9.6994   -0.8001    0.0000 C   0  0  0  0  0  0  0  0  0  0  0  0
  -11.0851    0.0000    0.0000 H   0  0  0  0  0  0  0  0  0  0  0  0
  -11.0851   -1.6000    0.0000 H   0  0  0  0  0  0  0  0  0  0  0  0
   -9.6994    0.7999    0.0000 H   0  0  0  0  0  0  0  0  0  0  0  0
  1  2  1  0  0  0  0
  2  3  1  0  0  0  0
  3  4  1  0  0  0  0
  3  5  2  0  0  0  0
  5  6  1  0  0  0  0
  6  7  1  0  0  0  0
  6  8  1  0  0  0  0
  8  9  2  0  0  0  0
  8 10  1  0  0  0  0
 10 11  1  0  0  0  0
 11 12  1  0  0  0  0
 11 13  1  0  0  0  0
 11 14  1  0  0  0  0
 10 15  1  0  0  0  0
 15 16  1  0  0  0  0
 15 17  1  0  0  0  0
 15 18  1  0  0  0  0
  5 19  1  0  0  0  0
 19 20  1  0  0  0  0
 19 21  2  0  0  0  0
 21 22  1  0  0  0  0
 21 23  1  0  0  0  0
 23  2  2  0  0  0  0
 23 24  1  0  0  0  0
  1 25  1  0  0  0  0
 25 26  1  0  0  0  0
 25 27  1  0  0  0  0
 25 28  1  0  0  0  0
M  END
> <ChemID>
100608

> <source_casrn>
28170-54-9

> <CAS>
28170-54-9

> <SMILES>
COc1cc(ccc1)NC(=O)N(C)C

> <NAME>
N'-(3-METHOXYPHENYL)-N,N-DIMETHYLUREA

> <preferred_name>
Urea, 3-(m-methoxyphenyl)-1,1-dimethyl-

> <iupac>
3-(3-Methoxyphenyl)-1,1-dimethylurea

> <MPID>
99865

> <dsstox_substance_id>
DTXSID30182444

> <Canonical_QSARr>
COc1cc(ccc1)NC(=O)N(C)C

> <InChI_Code_QSARr>
InChI=1S/C10H14N2O2/c1-12(2)10(13)11-8-5-4-6-9(7-8)14-3/h4-7H,1-3H3,(H,11,13)

> <InChI Key_QSARr>
BGDUKFUILQWOAE-UHFFFAOYSA-N

> <LogKOC>
1.72

$$$$
100612
  -INDIGO-08031722282D

 39 39  0  0  0  0  0  0  0  0999 V2000
   -2.4000   -1.3856    0.0000 N   0  0  0  0  0  0  0  0  0  0  0  0
   -0.8000   -1.3856    0.0000 C   0  0  0  0  0  0  0  0  0  0  0  0
    0.0000   -0.0001    0.0000 N   0  0  0  0  0  0  0  0  0  0  0  0
   -0.8000    1.3856    0.0000 C   0  0  0  0  0  0  0  0  0  0  0  0
   -2.2782    1.9979    0.0000 H   0  0  0  0  0  0  0  0  0  0  0  0
   -2.2782    0.7733    0.0000 H   0  0  0  0  0  0  0  0  0  0  0  0
    0.0000    2.7713    0.0000 C   0  0  0  0  0  0  0  0  0  0  0  0
    0.8000    4.1569    0.0000 H   0  0  0  0  0  0  0  0  0  0  0  0
   -0.8000    4.1569    0.0000 H   0  0  0  0  0  0  0  0  0  0  0  0
    1.6000    2.7713    0.0000 H   0  0  0  0  0  0  0  0  0  0  0  0
    1.6000   -0.0001    0.0000 C   0  0  0  0  0  0  0  0  0  0  0  0
    1.8088   -1.5863    0.0000 H   0  0  0  0  0  0  0  0  0  0  0  0
    2.8694   -0.9740    0.0000 H   0  0  0  0  0  0  0  0  0  0  0  0
    2.4000    1.3856    0.0000 C   0  0  0  0  0  0  0  0  0  0  0  0
    4.0000    1.3856    0.0000 H   0  0  0  0  0  0  0  0  0  0  0  0
    3.2000    2.7713    0.0000 H   0  0  0  0  0  0  0  0  0  0  0  0
    3.2000   -0.0001    0.0000 H   0  0  0  0  0  0  0  0  0  0  0  0
    0.0000   -2.7712    0.0000 N   0  0  0  0  0  0  0  0  0  0  0  0
   -0.8000   -4.1569    0.0000 C   0  0  0  0  0  0  0  0  0  0  0  0
    0.0000   -5.5425    0.0000 C   0  0  0  0  0  0  0  0  0  0  0  0
    0.8000   -6.9282    0.0000 H   0  0  0  0  0  0  0  0  0  0  0  0
    1.6000   -5.5425    0.0000 H   0  0  0  0  0  0  0  0  0  0  0  0
   -0.8000   -6.9282    0.0000 H   0  0  0  0  0  0  0  0  0  0  0  0
   -2.4000   -4.1569    0.0000 C   0  0  0  0  0  0  0  0  0  0  0  0
   -3.2000   -5.5425    0.0000 H   0  0  0  0  0  0  0  0  0  0  0  0
   -3.2000   -2.7712    0.0000 C   0  0  0  0  0  0  0  0  0  0  0  0
   -4.8000   -2.7712    0.0000 O   0  0  0  0  0  0  0  0  0  0  0  0
   -5.6000   -1.3856    0.0000 P   0  0  0  0  0  0  0  0  0  0  0  0
   -4.8000   -0.0001    0.0000 S   0  0  0  0  0  0  0  0  0  0  0  0
   -7.2000   -1.3856    0.0000 O   0  0  0  0  0  0  0  0  0  0  0  0
   -8.0000   -2.7712    0.0000 C   0  0  0  0  0  0  0  0  0  0  0  0
   -8.8000   -4.1569    0.0000 H   0  0  0  0  0  0  0  0  0  0  0  0
   -9.6000   -2.7712    0.0000 H   0  0  0  0  0  0  0  0  0  0  0  0
   -7.2000   -4.1569    0.0000 H   0  0  0  0  0  0  0  0  0  0  0  0
   -6.4000   -0.0001    0.0000 O   0  0  0  0  0  0  0  0  0  0  0  0
   -8.0000   -0.0001    0.0000 C   0  0  0  0  0  0  0  0  0  0  0  0
   -8.8000    1.3856    0.0000 H   0  0  0  0  0  0  0  0  0  0  0  0
   -9.6000   -0.0001    0.0000 H   0  0  0  0  0  0  0  0  0  0  0  0
   -7.2000    1.3856    0.0000 H   0  0  0  0  0  0  0  0  0  0  0  0
  1  2  1  0  0  0  0
  2  3  1  0  0  0  0
  3  4  1  0  0  0  0
  4  5  1  0  0  0  0
  4  6  1  0  0  0  0
  4  7  1  0  0  0  0
  7  8  1  0  0  0  0
  7  9  1  0  0  0  0
  7 10  1  0  0  0  0
  3 11  1  0  0  0  0
 11 12  1  0  0  0  0
 11 13  1  0  0  0  0
 11 14  1  0  0  0  0
 14 15  1  0  0  0  0
 14 16  1  0  0  0  0
 14 17  1  0  0  0  0
  2 18  2  0  0  0  0
 18 19  1  0  0  0  0
 19 20  1  0  0  0  0
 20 21  1  0  0  0  0
 20 22  1  0  0  0  0
 20 23  1  0  0  0  0
 19 24  2  0  0  0  0
 24 25  1  0  0  0  0
 24 26  1  0  0  0  0
 26  1  2  0  0  0  0
 26 27  1  0  0  0  0
 27 28  1  0  0  0  0
 28 29  2  0  0  0  0
 28 30  1  0  0  0  0
 30 31  1  0  0  0  0
 31 32  1  0  0  0  0
 31 33  1  0  0  0  0
 31 34  1  0  0  0  0
 28 35  1  0  0  0  0
 35 36  1  0  0  0  0
 36 37  1  0  0  0  0
 36 38  1  0  0  0  0
 36 39  1  0  0  0  0
M  END
> <ChemID>
100612

> <source_casrn>
29232-93-7

> <CAS>
29232-93-7

> <SMILES>
Cc1cc([n]c([n]1)N(CC)CC)OP(=S)(OC)OC

> <NAME>
PIRIMIPHOS-METHYL

> <preferred_name>
Pirimiphos-methyl

> <iupac>
O-[2-(diethylamino)-6-methylpyrimidin-4-yl] O,O-dimethyl phosphorothioate

> <MPID>
99869

> <dsstox_substance_id>
DTXSID0024266

> <Canonical_QSARr>
Cc1cc([n]c([n]1)N(CC)CC)OP(=S)(OC)OC

> <InChI_Code_QSARr>
InChI=1S/C11H20N3O3PS/c1-6-14(7-2)11-12-9(3)8-10(13-11)17-18(19,15-4)16-5/h8H,6-7H2,1-5H3

> <InChI Key_QSARr>
QHOQHJPRIBSPCY-UHFFFAOYSA-N

> <LogKOC>
3.0

$$$$
100617
  -INDIGO-08031722282D

 42 42  0  0  0  0  0  0  0  0999 V2000
   -2.6285   -1.2258    0.0000 P   0  0  0  0  0  0  0  0  0  0  0  0
   -1.0285   -1.2258    0.0000 N   0  0  0  0  0  0  0  0  0  0  0  0
   -0.4812   -2.7291    0.0000 H   0  0  0  0  0  0  0  0  0  0  0  0
   -0.0001    0.0001    0.0000 C   0  0  0  0  0  0  0  0  0  0  0  0
   -1.2257    1.0285    0.0000 H   0  0  0  0  0  0  0  0  0  0  0  0
    1.0286    1.2257    0.0000 C   0  0  0  0  0  0  0  0  0  0  0  0
    2.0570    2.4514    0.0000 H   0  0  0  0  0  0  0  0  0  0  0  0
    2.6041    0.9478    0.0000 H   0  0  0  0  0  0  0  0  0  0  0  0
    0.4813    2.7291    0.0000 H   0  0  0  0  0  0  0  0  0  0  0  0
    1.2258   -1.0285    0.0000 C   0  0  0  0  0  0  0  0  0  0  0  0
    2.4514   -2.0569    0.0000 H   0  0  0  0  0  0  0  0  0  0  0  0
    2.7292   -0.4812    0.0000 H   0  0  0  0  0  0  0  0  0  0  0  0
    0.9478   -2.6041    0.0000 H   0  0  0  0  0  0  0  0  0  0  0  0
   -3.4285    0.1599    0.0000 O   0  0  0  0  0  0  0  0  0  0  0  0
   -5.0284    0.1599    0.0000 C   0  0  0  0  0  0  0  0  0  0  0  0
   -5.8284    1.5456    0.0000 C   0  0  0  0  0  0  0  0  0  0  0  0
   -5.0284    2.9312    0.0000 H   0  0  0  0  0  0  0  0  0  0  0  0
   -7.4284    1.5456    0.0000 C   0  0  0  0  0  0  0  0  0  0  0  0
   -8.2286    2.9312    0.0000 C   0  0  0  0  0  0  0  0  0  0  0  0
   -9.0285    4.3169    0.0000 H   0  0  0  0  0  0  0  0  0  0  0  0
   -7.4284    4.3169    0.0000 H   0  0  0  0  0  0  0  0  0  0  0  0
   -9.8285    2.9312    0.0000 H   0  0  0  0  0  0  0  0  0  0  0  0
   -8.2286    0.1599    0.0000 C   0  0  0  0  0  0  0  0  0  0  0  0
   -9.8285    0.1599    0.0000 S   0  0  0  0  0  0  0  0  0  0  0  0
  -10.6285   -1.2258    0.0000 C   0  0  0  0  0  0  0  0  0  0  0  0
  -11.4285   -2.6112    0.0000 H   0  0  0  0  0  0  0  0  0  0  0  0
  -12.2285   -1.2258    0.0000 H   0  0  0  0  0  0  0  0  0  0  0  0
   -9.8285   -2.6112    0.0000 H   0  0  0  0  0  0  0  0  0  0  0  0
  -10.6285    1.5456    0.0000 O   0  0  0  0  0  0  0  0  0  0  0  0
   -7.4284   -1.2256    0.0000 C   0  0  0  0  0  0  0  0  0  0  0  0
   -8.2286   -2.6112    0.0000 H   0  0  0  0  0  0  0  0  0  0  0  0
   -5.8284   -1.2258    0.0000 C   0  0  0  0  0  0  0  0  0  0  0  0
   -5.0284   -2.6112    0.0000 H   0  0  0  0  0  0  0  0  0  0  0  0
   -1.8285    0.1599    0.0000 O   0  0  0  0  0  0  0  0  0  0  0  0
   -1.8285   -2.6112    0.0000 O   0  0  0  0  0  0  0  0  0  0  0  0
   -2.6285   -3.9969    0.0000 C   0  0  0  0  0  0  0  0  0  0  0  0
   -4.1066   -4.6092    0.0000 H   0  0  0  0  0  0  0  0  0  0  0  0
   -4.1066   -3.3846    0.0000 H   0  0  0  0  0  0  0  0  0  0  0  0
   -1.8285   -5.3826    0.0000 C   0  0  0  0  0  0  0  0  0  0  0  0
   -2.6285   -6.7682    0.0000 H   0  0  0  0  0  0  0  0  0  0  0  0
   -1.0285   -6.7682    0.0000 H   0  0  0  0  0  0  0  0  0  0  0  0
   -3.4285   -5.3826    0.0000 H   0  0  0  0  0  0  0  0  0  0  0  0
  1  2  1  0  0  0  0
  2  3  1  0  0  0  0
  2  4  1  0  0  0  0
  4  5  1  0  0  0  0
  4  6  1  0  0  0  0
  6  7  1  0  0  0  0
  6  8  1  0  0  0  0
  6  9  1  0  0  0  0
  4 10  1  0  0  0  0
 10 11  1  0  0  0  0
 10 12  1  0  0  0  0
 10 13  1  0  0  0  0
  1 14  1  0  0  0  0
 14 15  1  0  0  0  0
 15 16  1  0  0  0  0
 16 17  1  0  0  0  0
 16 18  2  0  0  0  0
 18 19  1  0  0  0  0
 19 20  1  0  0  0  0
 19 21  1  0  0  0  0
 19 22  1  0  0  0  0
 18 23  1  0  0  0  0
 23 24  1  0  0  0  0
 24 25  1  0  0  0  0
 25 26  1  0  0  0  0
 25 27  1  0  0  0  0
 25 28  1  0  0  0  0
 24 29  2  0  0  0  0
 23 30  2  0  0  0  0
 30 31  1  0  0  0  0
 30 32  1  0  0  0  0
 32 15  2  0  0  0  0
 32 33  1  0  0  0  0
  1 34  2  0  0  0  0
  1 35  1  0  0  0  0
 35 36  1  0  0  0  0
 36 37  1  0  0  0  0
 36 38  1  0  0  0  0
 36 39  1  0  0  0  0
 39 40  1  0  0  0  0
 39 41  1  0  0  0  0
 39 42  1  0  0  0  0
M  END
> <ChemID>
100617

> <source_casrn>
31972-43-7

> <CAS>
31972-43-7

> <SMILES>
O=P(NC(C)C)(Oc1ccc(c(c1)C)S(=O)C)OCC

> <NAME>
BAY 68138 SULFOXIDE

> <preferred_name>
Fenamiphos sulfoxide

> <iupac>
ethyl 3-methyl-4-(methylsulfinyl)phenyl propan-2-ylphosphoramidate

> <MPID>
99873

> <dsstox_substance_id>
DTXSID8037548

> <Canonical_QSARr>
Cc1cc(ccc1S(C)=O)OP(=O)(NC(C)C)OCC

> <InChI_Code_QSARr>
InChI=1S/C13H22NO4PS/c1-6-17-19(15,14-10(2)3)18-12-7-8-13(20(5)16)11(4)9-12/h7-10H,6H2,1-5H3,(H,14,15)

> <InChI Key_QSARr>
LUQMWGMGWJEGAT-UHFFFAOYSA-N

> <LogKOC>
1.57

$$$$
100621
  -INDIGO-08031722282D

 29 31  0  0  0  0  0  0  0  0999 V2000
   -0.0000    0.0000    0.0000 C   0  0  0  0  0  0  0  0  0  0  0  0
    1.5217    0.4944    0.0000 C   0  0  0  0  0  0  0  0  0  0  0  0
    2.0160    2.0161    0.0000 O   0  0  0  0  0  0  0  0  0  0  0  0
    2.4622   -0.7999    0.0000 N   0  0  0  0  0  0  0  0  0  0  0  0
    4.0621   -0.8001    0.0000 C   0  0  0  0  0  0  0  0  0  0  0  0
    4.8622    0.5857    0.0000 C   0  0  0  0  0  0  0  0  0  0  0  0
    4.0621    1.9712    0.0000 H   0  0  0  0  0  0  0  0  0  0  0  0
    6.4622    0.5857    0.0000 C   0  0  0  0  0  0  0  0  0  0  0  0
    7.2621    1.9712    0.0000 Cl  0  0  0  0  0  0  0  0  0  0  0  0
    7.2621   -0.8001    0.0000 C   0  0  0  0  0  0  0  0  0  0  0  0
    8.8621   -0.8001    0.0000 H   0  0  0  0  0  0  0  0  0  0  0  0
    6.4622   -2.1857    0.0000 C   0  0  0  0  0  0  0  0  0  0  0  0
    7.2621   -3.5712    0.0000 Cl  0  0  0  0  0  0  0  0  0  0  0  0
    4.8622   -2.1857    0.0000 C   0  0  0  0  0  0  0  0  0  0  0  0
    4.0621   -3.5712    0.0000 H   0  0  0  0  0  0  0  0  0  0  0  0
    1.5217   -2.0944    0.0000 C   0  0  0  0  0  0  0  0  0  0  0  0
    2.0160   -3.6161    0.0000 O   0  0  0  0  0  0  0  0  0  0  0  0
   -0.0000   -1.6000    0.0000 C   0  0  0  0  0  0  0  0  0  0  0  0
   -0.6508   -3.0616    0.0000 C   0  0  0  0  0  0  0  0  0  0  0  0
   -1.3015   -4.5233    0.0000 H   0  0  0  0  0  0  0  0  0  0  0  0
    0.2897   -4.3561    0.0000 H   0  0  0  0  0  0  0  0  0  0  0  0
   -2.2420   -3.2289    0.0000 H   0  0  0  0  0  0  0  0  0  0  0  0
   -1.3857   -0.8001    0.0000 C   0  0  0  0  0  0  0  0  0  0  0  0
   -2.4141   -2.0257    0.0000 H   0  0  0  0  0  0  0  0  0  0  0  0
   -2.4141    0.4257    0.0000 H   0  0  0  0  0  0  0  0  0  0  0  0
   -0.6508    1.4616    0.0000 C   0  0  0  0  0  0  0  0  0  0  0  0
   -1.3015    2.9233    0.0000 H   0  0  0  0  0  0  0  0  0  0  0  0
    0.2897    2.7561    0.0000 H   0  0  0  0  0  0  0  0  0  0  0  0
   -2.2420    1.6289    0.0000 H   0  0  0  0  0  0  0  0  0  0  0  0
  1  2  1  0  0  0  0
  2  3  2  0  0  0  0
  2  4  1  0  0  0  0
  4  5  1  0  0  0  0
  5  6  1  0  0  0  0
  6  7  1  0  0  0  0
  6  8  2  0  0  0  0
  8  9  1  0  0  0  0
  8 10  1  0  0  0  0
 10 11  1  0  0  0  0
 10 12  2  0  0  0  0
 12 13  1  0  0  0  0
 12 14  1  0  0  0  0
 14  5  2  0  0  0  0
 14 15  1  0  0  0  0
  4 16  1  0  0  0  0
 16 17  2  0  0  0  0
 16 18  1  0  0  0  0
 18  1  1  0  0  0  0
 18 19  1  0  0  0  0
 19 20  1  0  0  0  0
 19 21  1  0  0  0  0
 19 22  1  0  0  0  0
 18 23  1  0  0  0  0
 23  1  1  0  0  0  0
 23 24  1  0  0  0  0
 23 25  1  0  0  0  0
  1 26  1  0  0  0  0
 26 27  1  0  0  0  0
 26 28  1  0  0  0  0
 26 29  1  0  0  0  0
M  END
> <ChemID>
100621

> <source_casrn>
32809-16-8

> <CAS>
32809-16-8

> <SMILES>
CC12CC1(C)C(=O)N(c1cc(Cl)cc(Cl)c1)C2=O

> <NAME>
PROCYMIDONE

> <preferred_name>
Procymidone

> <iupac>
3-(3,5-dichlorophenyl)-1,5-dimethyl-3-azabicyclo[3.1.0]hexane-2,4-dione

> <MPID>
99877

> <dsstox_substance_id>
DTXSID9033923

> <Canonical_QSARr>
CC12CC1(C)C(=O)N(c1cc(Cl)cc(Cl)c1)C2=O

> <InChI_Code_QSARr>
InChI=1S/C13H11Cl2NO2/c1-12-6-13(12,2)11(18)16(10(12)17)9-4-7(14)3-8(15)5-9/h3-5H,6H2,1-2H3

> <InChI Key_QSARr>
QXJKBPAVAHBARF-UHFFFAOYSA-N

> <LogKOC>
3.18

$$$$
100625
  -INDIGO-08031722282D

 36 36  0  0  0  0  0  0  0  0999 V2000
    2.3999    1.3857    0.0000 C   0  0  0  0  0  0  0  0  0  0  0  0
    2.1222    2.9613    0.0000 N   0  0  0  0  0  0  0  0  0  0  0  0
    3.3478    3.9898    0.0000 O   0  0  0  0  0  0  0  0  0  0  0  0
    0.6186    3.5085    0.0000 O   0  0  0  0  0  0  0  0  0  0  0  0
    1.5999   -0.0000    0.0000 C   0  0  0  0  0  0  0  0  0  0  0  0
    0.0001   -0.0000    0.0000 N   0  0  0  0  0  0  0  0  0  0  0  0
   -0.7999   -1.3856    0.0000 C   0  0  0  0  0  0  0  0  0  0  0  0
    0.4694   -2.3597    0.0000 H   0  0  0  0  0  0  0  0  0  0  0  0
   -0.5911   -2.9719    0.0000 H   0  0  0  0  0  0  0  0  0  0  0  0
   -2.3035   -1.9328    0.0000 C   0  0  0  0  0  0  0  0  0  0  0  0
   -3.8070   -2.4802    0.0000 H   0  0  0  0  0  0  0  0  0  0  0  0
   -2.5814   -3.5086    0.0000 H   0  0  0  0  0  0  0  0  0  0  0  0
   -3.5293   -0.9044    0.0000 Cl  0  0  0  0  0  0  0  0  0  0  0  0
   -0.7999    1.3857    0.0000 C   0  0  0  0  0  0  0  0  0  0  0  0
   -0.5911    2.9720    0.0000 H   0  0  0  0  0  0  0  0  0  0  0  0
    0.4694    2.3596    0.0000 H   0  0  0  0  0  0  0  0  0  0  0  0
   -2.4000    1.3857    0.0000 C   0  0  0  0  0  0  0  0  0  0  0  0
   -2.6088   -0.2007    0.0000 H   0  0  0  0  0  0  0  0  0  0  0  0
   -3.6693    0.4117    0.0000 H   0  0  0  0  0  0  0  0  0  0  0  0
   -3.2000    2.7712    0.0000 C   0  0  0  0  0  0  0  0  0  0  0  0
   -4.0000    4.1569    0.0000 H   0  0  0  0  0  0  0  0  0  0  0  0
   -4.8000    2.7712    0.0000 H   0  0  0  0  0  0  0  0  0  0  0  0
   -2.4000    4.1569    0.0000 H   0  0  0  0  0  0  0  0  0  0  0  0
    2.3999   -1.3856    0.0000 C   0  0  0  0  0  0  0  0  0  0  0  0
    2.1222   -2.9614    0.0000 N   0  0  0  0  0  0  0  0  0  0  0  0
    0.6186   -3.5086    0.0000 O   0  0  0  0  0  0  0  0  0  0  0  0
    3.3478   -3.9898    0.0000 O   0  0  0  0  0  0  0  0  0  0  0  0
    3.9999   -1.3856    0.0000 C   0  0  0  0  0  0  0  0  0  0  0  0
    4.8000   -2.7713    0.0000 H   0  0  0  0  0  0  0  0  0  0  0  0
    4.8000   -0.0000    0.0000 C   0  0  0  0  0  0  0  0  0  0  0  0
    6.4000   -0.0000    0.0000 C   0  0  0  0  0  0  0  0  0  0  0  0
    8.0000   -0.0000    0.0000 F   0  0  0  0  0  0  0  0  0  0  0  0
    7.2000   -1.3856    0.0000 F   0  0  0  0  0  0  0  0  0  0  0  0
    7.2000    1.3857    0.0000 F   0  0  0  0  0  0  0  0  0  0  0  0
    3.9999    1.3857    0.0000 C   0  0  0  0  0  0  0  0  0  0  0  0
    4.8000    2.7712    0.0000 H   0  0  0  0  0  0  0  0  0  0  0  0
  1  2  1  0  0  0  0
  2  3  1  0  0  0  0
  2  4  2  0  0  0  0
  1  5  1  0  0  0  0
  5  6  1  0  0  0  0
  6  7  1  0  0  0  0
  7  8  1  0  0  0  0
  7  9  1  0  0  0  0
  7 10  1  0  0  0  0
 10 11  1  0  0  0  0
 10 12  1  0  0  0  0
 10 13  1  0  0  0  0
  6 14  1  0  0  0  0
 14 15  1  0  0  0  0
 14 16  1  0  0  0  0
 14 17  1  0  0  0  0
 17 18  1  0  0  0  0
 17 19  1  0  0  0  0
 17 20  1  0  0  0  0
 20 21  1  0  0  0  0
 20 22  1  0  0  0  0
 20 23  1  0  0  0  0
  5 24  2  0  0  0  0
 24 25  1  0  0  0  0
 25 26  1  0  0  0  0
 25 27  2  0  0  0  0
 24 28  1  0  0  0  0
 28 29  1  0  0  0  0
 28 30  2  0  0  0  0
 30 31  1  0  0  0  0
 31 32  1  0  0  0  0
 31 33  1  0  0  0  0
 31 34  1  0  0  0  0
 30 35  1  0  0  0  0
 35  1  2  0  0  0  0
 35 36  1  0  0  0  0
M  CHG  4   2   1   3  -1  25   1  26  -1
M  END
> <ChemID>
100625

> <source_casrn>
33245-39-5

> <CAS>
33245-39-5

> <SMILES>
CCCN(CCCl)c1c(cc(cc1[N+]([O-])=O)C(F)(F)F)[N+]([O-])=O

> <NAME>
FLUCHLORALIN

> <preferred_name>
Fluchloralin

> <iupac>
N-(2-chloroethyl)-2,6-dinitro-N-propyl-4-(trifluoromethyl)aniline

> <MPID>
99881

> <dsstox_substance_id>
DTXSID9032614

> <Canonical_QSARr>
CCCN(CCCl)c1c(cc(cc1[N+]([O-])=O)C(F)(F)F)[N+]([O-])=O

> <InChI_Code_QSARr>
InChI=1S/C12H13ClF3N3O4/c1-2-4-17(5-3-13)11-9(18(20)21)6-8(12(14,15)16)7-10(11)19(22)23/h6-7H,2-5H2,1H3

> <InChI Key_QSARr>
MNFMIVVPXOGUMX-UHFFFAOYSA-N

> <LogKOC>
3.55

$$$$
100629
  -INDIGO-08031722282D

 31 31  0  0  0  0  0  0  0  0999 V2000
   -3.9178   -1.3382    0.0000 C   0  0  0  0  0  0  0  0  0  0  0  0
   -2.8472   -0.1493    0.0000 S   0  0  0  0  0  0  0  0  0  0  0  0
   -1.3857   -0.8000    0.0000 C   0  0  0  0  0  0  0  0  0  0  0  0
    0.0001    0.0000    0.0000 C   0  0  0  0  0  0  0  0  0  0  0  0
    1.3857    0.8001    0.0000 C   0  0  0  0  0  0  0  0  0  0  0  0
    2.7713    1.6000    0.0000 H   0  0  0  0  0  0  0  0  0  0  0  0
    2.7713    0.0000    0.0000 H   0  0  0  0  0  0  0  0  0  0  0  0
    1.3857    2.4000    0.0000 H   0  0  0  0  0  0  0  0  0  0  0  0
    0.8001   -1.3856    0.0000 C   0  0  0  0  0  0  0  0  0  0  0  0
    1.6001   -2.7713    0.0000 H   0  0  0  0  0  0  0  0  0  0  0  0
    2.4001   -1.3856    0.0000 H   0  0  0  0  0  0  0  0  0  0  0  0
    0.0001   -2.7713    0.0000 H   0  0  0  0  0  0  0  0  0  0  0  0
   -0.7999    1.3856    0.0000 C   0  0  0  0  0  0  0  0  0  0  0  0
   -1.6001    2.7713    0.0000 H   0  0  0  0  0  0  0  0  0  0  0  0
    0.0001    2.7713    0.0000 H   0  0  0  0  0  0  0  0  0  0  0  0
   -2.4001    1.3856    0.0000 H   0  0  0  0  0  0  0  0  0  0  0  0
   -1.5529   -2.3912    0.0000 N   0  0  0  0  0  0  0  0  0  0  0  0
   -3.1178   -2.7239    0.0000 N   0  0  0  0  0  0  0  0  0  0  0  0
   -5.5091   -1.1711    0.0000 N   0  0  0  0  0  0  0  0  0  0  0  0
   -6.4496   -2.4655    0.0000 C   0  0  0  0  0  0  0  0  0  0  0  0
   -5.7988   -3.9271    0.0000 O   0  0  0  0  0  0  0  0  0  0  0  0
   -8.0408   -2.2982    0.0000 N   0  0  0  0  0  0  0  0  0  0  0  0
   -8.6916   -0.8365    0.0000 H   0  0  0  0  0  0  0  0  0  0  0  0
   -8.9813   -3.5926    0.0000 C   0  0  0  0  0  0  0  0  0  0  0  0
   -9.9218   -4.8870    0.0000 H   0  0  0  0  0  0  0  0  0  0  0  0
  -10.5725   -3.4254    0.0000 H   0  0  0  0  0  0  0  0  0  0  0  0
   -8.3306   -5.0543    0.0000 H   0  0  0  0  0  0  0  0  0  0  0  0
   -6.1600    0.2906    0.0000 C   0  0  0  0  0  0  0  0  0  0  0  0
   -6.8108    1.7524    0.0000 H   0  0  0  0  0  0  0  0  0  0  0  0
   -7.7513    0.4579    0.0000 H   0  0  0  0  0  0  0  0  0  0  0  0
   -5.2195    1.5851    0.0000 H   0  0  0  0  0  0  0  0  0  0  0  0
  1  2  1  0  0  0  0
  2  3  1  0  0  0  0
  3  4  1  0  0  0  0
  4  5  1  0  0  0  0
  5  6  1  0  0  0  0
  5  7  1  0  0  0  0
  5  8  1  0  0  0  0
  4  9  1  0  0  0  0
  9 10  1  0  0  0  0
  9 11  1  0  0  0  0
  9 12  1  0  0  0  0
  4 13  1  0  0  0  0
 13 14  1  0  0  0  0
 13 15  1  0  0  0  0
 13 16  1  0  0  0  0
  3 17  2  0  0  0  0
 17 18  1  0  0  0  0
 18  1  2  0  0  0  0
  1 19  1  0  0  0  0
 19 20  1  0  0  0  0
 20 21  2  0  0  0  0
 20 22  1  0  0  0  0
 22 23  1  0  0  0  0
 22 24  1  0  0  0  0
 24 25  1  0  0  0  0
 24 26  1  0  0  0  0
 24 27  1  0  0  0  0
 19 28  1  0  0  0  0
 28 29  1  0  0  0  0
 28 30  1  0  0  0  0
 28 31  1  0  0  0  0
M  END
> <ChemID>
100629

> <source_casrn>
34014-18-1

> <CAS>
34014-18-1

> <SMILES>
CNC(=O)N(C)c1[n][n]c([s]1)C(C)(C)C

> <NAME>
TEBUTHIURON

> <preferred_name>
Tebuthiuron

> <iupac>
1-(5-tert-butyl-1,3,4-thiadiazol-2-yl)-1,3-dimethylurea

> <MPID>
99885

> <dsstox_substance_id>
DTXSID3024316

> <Canonical_QSARr>
CNC(=O)N(C)c1[n][n]c([s]1)C(C)(C)C

> <InChI_Code_QSARr>
InChI=1S/C9H16N4OS/c1-9(2,3)6-11-12-8(15-6)13(5)7(14)10-4/h1-5H3,(H,10,14)

> <InChI Key_QSARr>
HBPDKDSFLXWOAE-UHFFFAOYSA-N

> <LogKOC>
1.83

$$$$
100634
  -INDIGO-08031722282D

 22 23  0  0  0  0  0  0  0  0999 V2000
   -0.0001    0.0000    0.0000 C   0  0  0  0  0  0  0  0  0  0  0  0
    1.6001   -0.0000    0.0000 C   0  0  0  0  0  0  0  0  0  0  0  0
    2.4001   -1.3856    0.0000 C   0  0  0  0  0  0  0  0  0  0  0  0
    1.6001   -2.7713    0.0000 Cl  0  0  0  0  0  0  0  0  0  0  0  0
    4.0000   -1.3856    0.0000 C   0  0  0  0  0  0  0  0  0  0  0  0
    4.8000   -2.7713    0.0000 H   0  0  0  0  0  0  0  0  0  0  0  0
    4.8000    0.0000    0.0000 C   0  0  0  0  0  0  0  0  0  0  0  0
    6.4000    0.0000    0.0000 Cl  0  0  0  0  0  0  0  0  0  0  0  0
    4.0000    1.3856    0.0000 C   0  0  0  0  0  0  0  0  0  0  0  0
    4.8000    2.7713    0.0000 Cl  0  0  0  0  0  0  0  0  0  0  0  0
    2.4001    1.3856    0.0000 C   0  0  0  0  0  0  0  0  0  0  0  0
    1.6001    2.7713    0.0000 H   0  0  0  0  0  0  0  0  0  0  0  0
   -0.8001    1.3856    0.0000 C   0  0  0  0  0  0  0  0  0  0  0  0
   -0.0001    2.7713    0.0000 Cl  0  0  0  0  0  0  0  0  0  0  0  0
   -2.4000    1.3856    0.0000 C   0  0  0  0  0  0  0  0  0  0  0  0
   -3.2000    2.7713    0.0000 Cl  0  0  0  0  0  0  0  0  0  0  0  0
   -3.2000    0.0000    0.0000 C   0  0  0  0  0  0  0  0  0  0  0  0
   -4.8000   -0.0000    0.0000 Cl  0  0  0  0  0  0  0  0  0  0  0  0
   -2.4000   -1.3856    0.0000 C   0  0  0  0  0  0  0  0  0  0  0  0
   -3.2000   -2.7713    0.0000 H   0  0  0  0  0  0  0  0  0  0  0  0
   -0.8001   -1.3856    0.0000 C   0  0  0  0  0  0  0  0  0  0  0  0
   -0.0001   -2.7713    0.0000 H   0  0  0  0  0  0  0  0  0  0  0  0
  1  2  1  0  0  0  0
  2  3  1  0  0  0  0
  3  4  1  0  0  0  0
  3  5  2  0  0  0  0
  5  6  1  0  0  0  0
  5  7  1  0  0  0  0
  7  8  1  0  0  0  0
  7  9  2  0  0  0  0
  9 10  1  0  0  0  0
  9 11  1  0  0  0  0
 11  2  2  0  0  0  0
 11 12  1  0  0  0  0
  1 13  1  0  0  0  0
 13 14  1  0  0  0  0
 13 15  2  0  0  0  0
 15 16  1  0  0  0  0
 15 17  1  0  0  0  0
 17 18  1  0  0  0  0
 17 19  2  0  0  0  0
 19 20  1  0  0  0  0
 19 21  1  0  0  0  0
 21  1  2  0  0  0  0
 21 22  1  0  0  0  0
M  END
> <ChemID>
100634

> <source_casrn>
35065-28-2

> <CAS>
35065-28-2

> <SMILES>
Clc1ccc(-c2cc(Cl)c(Cl)cc2Cl)c(Cl)c1Cl

> <NAME>
2,2',3,4,4',5'-HEXACHLOROBIPHENYL

> <preferred_name>
2,2',3,4,4',5'-Hexachlorobiphenyl

> <iupac>
2,2',3,4,4',5'-hexachlorobiphenyl

> <MPID>
99889

> <dsstox_substance_id>
DTXSID8038300

> <Canonical_QSARr>
Clc1ccc(-c2cc(Cl)c(Cl)cc2Cl)c(Cl)c1Cl

> <InChI_Code_QSARr>
InChI=1S/C12H4Cl6/c13-7-2-1-5(11(17)12(7)18)6-3-9(15)10(16)4-8(6)14/h1-4H

> <InChI Key_QSARr>
RPUMZMSNLZHIGZ-UHFFFAOYSA-N

> <LogKOC>
5.93

$$$$
100638
  -INDIGO-08031722282D

 22 23  0  0  0  0  0  0  0  0999 V2000
   -0.0001    0.0000    0.0000 C   0  0  0  0  0  0  0  0  0  0  0  0
    1.6001   -0.0000    0.0000 C   0  0  0  0  0  0  0  0  0  0  0  0
    2.4001   -1.3856    0.0000 C   0  0  0  0  0  0  0  0  0  0  0  0
    1.6001   -2.7713    0.0000 Cl  0  0  0  0  0  0  0  0  0  0  0  0
    4.0000   -1.3856    0.0000 C   0  0  0  0  0  0  0  0  0  0  0  0
    4.8000   -2.7713    0.0000 H   0  0  0  0  0  0  0  0  0  0  0  0
    4.8000    0.0000    0.0000 C   0  0  0  0  0  0  0  0  0  0  0  0
    6.4000    0.0000    0.0000 H   0  0  0  0  0  0  0  0  0  0  0  0
    4.0000    1.3856    0.0000 C   0  0  0  0  0  0  0  0  0  0  0  0
    4.8000    2.7713    0.0000 Cl  0  0  0  0  0  0  0  0  0  0  0  0
    2.4001    1.3856    0.0000 C   0  0  0  0  0  0  0  0  0  0  0  0
    1.6001    2.7713    0.0000 H   0  0  0  0  0  0  0  0  0  0  0  0
   -0.8001    1.3856    0.0000 C   0  0  0  0  0  0  0  0  0  0  0  0
   -0.0001    2.7713    0.0000 Cl  0  0  0  0  0  0  0  0  0  0  0  0
   -2.4000    1.3856    0.0000 C   0  0  0  0  0  0  0  0  0  0  0  0
   -3.2000    2.7713    0.0000 H   0  0  0  0  0  0  0  0  0  0  0  0
   -3.2000    0.0000    0.0000 C   0  0  0  0  0  0  0  0  0  0  0  0
   -4.8000   -0.0000    0.0000 H   0  0  0  0  0  0  0  0  0  0  0  0
   -2.4000   -1.3856    0.0000 C   0  0  0  0  0  0  0  0  0  0  0  0
   -3.2000   -2.7713    0.0000 Cl  0  0  0  0  0  0  0  0  0  0  0  0
   -0.8001   -1.3856    0.0000 C   0  0  0  0  0  0  0  0  0  0  0  0
   -0.0001   -2.7713    0.0000 H   0  0  0  0  0  0  0  0  0  0  0  0
  1  2  1  0  0  0  0
  2  3  1  0  0  0  0
  3  4  1  0  0  0  0
  3  5  2  0  0  0  0
  5  6  1  0  0  0  0
  5  7  1  0  0  0  0
  7  8  1  0  0  0  0
  7  9  2  0  0  0  0
  9 10  1  0  0  0  0
  9 11  1  0  0  0  0
 11  2  2  0  0  0  0
 11 12  1  0  0  0  0
  1 13  1  0  0  0  0
 13 14  1  0  0  0  0
 13 15  2  0  0  0  0
 15 16  1  0  0  0  0
 15 17  1  0  0  0  0
 17 18  1  0  0  0  0
 17 19  2  0  0  0  0
 19 20  1  0  0  0  0
 19 21  1  0  0  0  0
 21  1  2  0  0  0  0
 21 22  1  0  0  0  0
M  END
> <ChemID>
100638

> <source_casrn>
35693-99-3

> <CAS>
35693-99-3

> <SMILES>
Clc1cc(-c2cc(Cl)ccc2Cl)c(Cl)cc1

> <NAME>
2,2',5,5'-TETRACHLOROBIPHENYL

> <preferred_name>
2,2',5,5'-Tetrachlorobiphenyl

> <iupac>
2,2',5,5'-tetrachlorobiphenyl

> <MPID>
99893

> <dsstox_substance_id>
DTXSID3038305

> <Canonical_QSARr>
Clc1cc(-c2cc(Cl)ccc2Cl)c(Cl)cc1

> <InChI_Code_QSARr>
InChI=1S/C12H6Cl4/c13-7-1-3-11(15)9(5-7)10-6-8(14)2-4-12(10)16/h1-6H

> <InChI Key_QSARr>
HCWZEPKLWVAEOV-UHFFFAOYSA-N

> <LogKOC>
5.12

$$$$
100642
  -INDIGO-08031722282D

 34 35  0  0  0  0  0  0  0  0999 V2000
   -3.8333   -1.7962    0.0000 N   0  0  0  0  0  0  0  0  0  0  0  0
   -2.2419   -1.6290    0.0000 C   0  0  0  0  0  0  0  0  0  0  0  0
   -1.5912   -0.1672    0.0000 N   0  0  0  0  0  0  0  0  0  0  0  0
   -2.5316    1.1272    0.0000 H   0  0  0  0  0  0  0  0  0  0  0  0
   -0.0001    0.0000    0.0000 C   0  0  0  0  0  0  0  0  0  0  0  0
    0.1674   -1.5912    0.0000 H   0  0  0  0  0  0  0  0  0  0  0  0
    1.5913    0.1672    0.0000 C   0  0  0  0  0  0  0  0  0  0  0  0
    3.1825    0.3344    0.0000 H   0  0  0  0  0  0  0  0  0  0  0  0
    2.2421    1.6289    0.0000 H   0  0  0  0  0  0  0  0  0  0  0  0
    2.5317   -1.1272    0.0000 H   0  0  0  0  0  0  0  0  0  0  0  0
   -0.1672    1.5913    0.0000 C   0  0  0  0  0  0  0  0  0  0  0  0
   -0.3344    3.1825    0.0000 H   0  0  0  0  0  0  0  0  0  0  0  0
    1.1271    2.5316    0.0000 H   0  0  0  0  0  0  0  0  0  0  0  0
   -1.6290    2.2420    0.0000 H   0  0  0  0  0  0  0  0  0  0  0  0
   -1.3015   -2.9234    0.0000 O   0  0  0  0  0  0  0  0  0  0  0  0
   -4.9038   -0.6072    0.0000 C   0  0  0  0  0  0  0  0  0  0  0  0
   -4.5711    0.9579    0.0000 O   0  0  0  0  0  0  0  0  0  0  0  0
   -6.3656   -1.2579    0.0000 N   0  0  0  0  0  0  0  0  0  0  0  0
   -7.7511   -0.4580    0.0000 C   0  0  0  0  0  0  0  0  0  0  0  0
   -7.7511    1.1421    0.0000 C   0  0  0  0  0  0  0  0  0  0  0  0
   -6.3656    1.9420    0.0000 H   0  0  0  0  0  0  0  0  0  0  0  0
   -9.1368    1.9420    0.0000 C   0  0  0  0  0  0  0  0  0  0  0  0
   -9.1368    3.5421    0.0000 Cl  0  0  0  0  0  0  0  0  0  0  0  0
  -10.5223    1.1421    0.0000 C   0  0  0  0  0  0  0  0  0  0  0  0
  -11.9081    1.9420    0.0000 H   0  0  0  0  0  0  0  0  0  0  0  0
  -10.5223   -0.4580    0.0000 C   0  0  0  0  0  0  0  0  0  0  0  0
  -11.9081   -1.2579    0.0000 Cl  0  0  0  0  0  0  0  0  0  0  0  0
   -9.1368   -1.2579    0.0000 C   0  0  0  0  0  0  0  0  0  0  0  0
   -9.1368   -2.8580    0.0000 H   0  0  0  0  0  0  0  0  0  0  0  0
   -6.1984   -2.8492    0.0000 C   0  0  0  0  0  0  0  0  0  0  0  0
   -7.3873   -3.9198    0.0000 O   0  0  0  0  0  0  0  0  0  0  0  0
   -4.6333   -3.1818    0.0000 C   0  0  0  0  0  0  0  0  0  0  0  0
   -5.1276   -4.7035    0.0000 H   0  0  0  0  0  0  0  0  0  0  0  0
   -3.1715   -3.8326    0.0000 H   0  0  0  0  0  0  0  0  0  0  0  0
  1  2  1  0  0  0  0
  2  3  1  0  0  0  0
  3  4  1  0  0  0  0
  3  5  1  0  0  0  0
  5  6  1  0  0  0  0
  5  7  1  0  0  0  0
  7  8  1  0  0  0  0
  7  9  1  0  0  0  0
  7 10  1  0  0  0  0
  5 11  1  0  0  0  0
 11 12  1  0  0  0  0
 11 13  1  0  0  0  0
 11 14  1  0  0  0  0
  2 15  2  0  0  0  0
  1 16  1  0  0  0  0
 16 17  2  0  0  0  0
 16 18  1  0  0  0  0
 18 19  1  0  0  0  0
 19 20  1  0  0  0  0
 20 21  1  0  0  0  0
 20 22  2  0  0  0  0
 22 23  1  0  0  0  0
 22 24  1  0  0  0  0
 24 25  1  0  0  0  0
 24 26  2  0  0  0  0
 26 27  1  0  0  0  0
 26 28  1  0  0  0  0
 28 19  2  0  0  0  0
 28 29  1  0  0  0  0
 18 30  1  0  0  0  0
 30 31  2  0  0  0  0
 30 32  1  0  0  0  0
 32  1  1  0  0  0  0
 32 33  1  0  0  0  0
 32 34  1  0  0  0  0
M  END
> <ChemID>
100642

> <source_casrn>
36734-19-7

> <CAS>
36734-19-7

> <SMILES>
c1c(Cl)cc(Cl)cc1N2C(=O)CN(C(=O)NC(C)C)C2(=O)

> <NAME>
ROVRAL (IPRODIONE)

> <preferred_name>
Iprodione

> <iupac>
3-(3,5-dichlorophenyl)-2,4-dioxo-N-(propan-2-yl)imidazolidine-1-carboxamide

> <MPID>
99897

> <dsstox_substance_id>
DTXSID3024154

> <Canonical_QSARr>
CC(C)NC(=O)N1CC(=O)N(c2cc(Cl)cc(Cl)c2)C1=O

> <InChI_Code_QSARr>
InChI=1S/C13H13Cl2N3O3/c1-7(2)16-12(20)17-6-11(19)18(13(17)21)10-4-8(14)3-9(15)5-10/h3-5,7H,6H2,1-2H3,(H,16,20)

> <InChI Key_QSARr>
ONUFESLQCSAYKA-UHFFFAOYSA-N

> <LogKOC>
2.85

$$$$
100646
  -INDIGO-08031722282D

 23 22  0  0  0  0  0  0  0  0999 V2000
    0.0001   -1.6000    0.0000 C   0  0  0  0  0  0  0  0  0  0  0  0
    1.3856   -2.4000    0.0000 O   0  0  0  0  0  0  0  0  0  0  0  0
    0.0001   -0.0000    0.0000 N   0  0  0  0  0  0  0  0  0  0  0  0
   -1.3856    0.8000    0.0000 C   0  0  0  0  0  0  0  0  0  0  0  0
   -1.9979    2.2782    0.0000 H   0  0  0  0  0  0  0  0  0  0  0  0
   -0.7734    2.2782    0.0000 H   0  0  0  0  0  0  0  0  0  0  0  0
   -2.7712   -0.0000    0.0000 C   0  0  0  0  0  0  0  0  0  0  0  0
   -2.7712   -1.6000    0.0000 H   0  0  0  0  0  0  0  0  0  0  0  0
   -4.1569    0.8000    0.0000 C   0  0  0  0  0  0  0  0  0  0  0  0
   -5.5426   -0.0000    0.0000 H   0  0  0  0  0  0  0  0  0  0  0  0
   -4.1569    2.4000    0.0000 H   0  0  0  0  0  0  0  0  0  0  0  0
    1.3856    0.8000    0.0000 C   0  0  0  0  0  0  0  0  0  0  0  0
    0.7734    2.2782    0.0000 H   0  0  0  0  0  0  0  0  0  0  0  0
    1.9979    2.2782    0.0000 H   0  0  0  0  0  0  0  0  0  0  0  0
    2.7712   -0.0000    0.0000 C   0  0  0  0  0  0  0  0  0  0  0  0
    2.7712   -1.6000    0.0000 H   0  0  0  0  0  0  0  0  0  0  0  0
    4.1569    0.8000    0.0000 C   0  0  0  0  0  0  0  0  0  0  0  0
    5.5426   -0.0000    0.0000 H   0  0  0  0  0  0  0  0  0  0  0  0
    4.1569    2.4000    0.0000 H   0  0  0  0  0  0  0  0  0  0  0  0
   -1.3856   -2.4000    0.0000 C   0  0  0  0  0  0  0  0  0  0  0  0
   -1.3856   -4.0000    0.0000 H   0  0  0  0  0  0  0  0  0  0  0  0
   -2.7712   -3.2000    0.0000 Cl  0  0  0  0  0  0  0  0  0  0  0  0
    0.0001   -3.2000    0.0000 Cl  0  0  0  0  0  0  0  0  0  0  0  0
  1  2  2  0  0  0  0
  1  3  1  0  0  0  0
  3  4  1  0  0  0  0
  4  5  1  0  0  0  0
  4  6  1  0  0  0  0
  4  7  1  0  0  0  0
  7  8  1  0  0  0  0
  7  9  2  0  0  0  0
  9 10  1  0  0  0  0
  9 11  1  0  0  0  0
  3 12  1  0  0  0  0
 12 13  1  0  0  0  0
 12 14  1  0  0  0  0
 12 15  1  0  0  0  0
 15 16  1  0  0  0  0
 15 17  2  0  0  0  0
 17 18  1  0  0  0  0
 17 19  1  0  0  0  0
  1 20  1  0  0  0  0
 20 21  1  0  0  0  0
 20 22  1  0  0  0  0
 20 23  1  0  0  0  0
M  END
> <ChemID>
100646

> <source_casrn>
37764-25-3

> <CAS>
37764-25-3

> <SMILES>
C=CCN(CC=C)C(=O)C(Cl)Cl

> <NAME>
ACETAMIDE, 2,2-DICHLORO-N,N-DI-2-PROPENYL-

> <preferred_name>
Dichlormid

> <iupac>
2,2-dichloro-N,N-di(prop-2-en-1-yl)acetamide

> <MPID>
99901

> <dsstox_substance_id>
DTXSID4027997

> <Canonical_QSARr>
C=CCN(CC=C)C(=O)C(Cl)Cl

> <InChI_Code_QSARr>
InChI=1S/C8H11Cl2NO/c1-3-5-11(6-4-2)8(12)7(9)10/h3-4,7H,1-2,5-6H2

> <InChI Key_QSARr>
YRMLFORXOOIJDR-UHFFFAOYSA-N

> <LogKOC>
1.6

$$$$
100650
  -INDIGO-08031722282D

 22 23  0  0  0  0  0  0  0  0999 V2000
   -0.0001    0.0000    0.0000 C   0  0  0  0  0  0  0  0  0  0  0  0
    1.6001   -0.0000    0.0000 C   0  0  0  0  0  0  0  0  0  0  0  0
    2.4001   -1.3856    0.0000 C   0  0  0  0  0  0  0  0  0  0  0  0
    1.6001   -2.7713    0.0000 Cl  0  0  0  0  0  0  0  0  0  0  0  0
    4.0000   -1.3856    0.0000 C   0  0  0  0  0  0  0  0  0  0  0  0
    4.8000   -2.7713    0.0000 Cl  0  0  0  0  0  0  0  0  0  0  0  0
    4.8000    0.0000    0.0000 C   0  0  0  0  0  0  0  0  0  0  0  0
    6.4000    0.0000    0.0000 H   0  0  0  0  0  0  0  0  0  0  0  0
    4.0000    1.3856    0.0000 C   0  0  0  0  0  0  0  0  0  0  0  0
    4.8000    2.7713    0.0000 H   0  0  0  0  0  0  0  0  0  0  0  0
    2.4001    1.3856    0.0000 C   0  0  0  0  0  0  0  0  0  0  0  0
    1.6001    2.7713    0.0000 Cl  0  0  0  0  0  0  0  0  0  0  0  0
   -0.8001    1.3856    0.0000 C   0  0  0  0  0  0  0  0  0  0  0  0
   -0.0001    2.7713    0.0000 Cl  0  0  0  0  0  0  0  0  0  0  0  0
   -2.4000    1.3856    0.0000 C   0  0  0  0  0  0  0  0  0  0  0  0
   -3.2000    2.7713    0.0000 H   0  0  0  0  0  0  0  0  0  0  0  0
   -3.2000    0.0000    0.0000 C   0  0  0  0  0  0  0  0  0  0  0  0
   -4.8000   -0.0000    0.0000 Cl  0  0  0  0  0  0  0  0  0  0  0  0
   -2.4000   -1.3856    0.0000 C   0  0  0  0  0  0  0  0  0  0  0  0
   -3.2000   -2.7713    0.0000 Cl  0  0  0  0  0  0  0  0  0  0  0  0
   -0.8001   -1.3856    0.0000 C   0  0  0  0  0  0  0  0  0  0  0  0
   -0.0001   -2.7713    0.0000 H   0  0  0  0  0  0  0  0  0  0  0  0
  1  2  1  0  0  0  0
  2  3  1  0  0  0  0
  3  4  1  0  0  0  0
  3  5  2  0  0  0  0
  5  6  1  0  0  0  0
  5  7  1  0  0  0  0
  7  8  1  0  0  0  0
  7  9  2  0  0  0  0
  9 10  1  0  0  0  0
  9 11  1  0  0  0  0
 11  2  2  0  0  0  0
 11 12  1  0  0  0  0
  1 13  1  0  0  0  0
 13 14  1  0  0  0  0
 13 15  2  0  0  0  0
 15 16  1  0  0  0  0
 15 17  1  0  0  0  0
 17 18  1  0  0  0  0
 17 19  2  0  0  0  0
 19 20  1  0  0  0  0
 19 21  1  0  0  0  0
 21  1  2  0  0  0  0
 21 22  1  0  0  0  0
M  END
> <ChemID>
100650

> <source_casrn>
38380-04-0

> <CAS>
38380-04-0

> <SMILES>
Clc1ccc(Cl)c(-c2cc(Cl)c(Cl)cc2Cl)c1Cl

> <NAME>
2,2',3,4',5',6-PCB

> <preferred_name>
2,2',3,4',5',6-Hexachlorobiphenyl

> <iupac>
1,2,4-trichloro-5-(2,3,6-trichlorophenyl)benzene

> <MPID>
99905

> <dsstox_substance_id>
DTXSID1073498

> <Canonical_QSARr>
Clc1ccc(Cl)c(-c2cc(Cl)c(Cl)cc2Cl)c1Cl

> <InChI_Code_QSARr>
InChI=1S/C12H4Cl6/c13-6-1-2-7(14)12(18)11(6)5-3-9(16)10(17)4-8(5)15/h1-4H

> <InChI Key_QSARr>
LKHLFUVHHXCNJH-UHFFFAOYSA-N

> <LogKOC>
5.79

$$$$
100654
  -INDIGO-08031722282D

 31 31  0  0  0  0  0  0  0  0999 V2000
    1.6000    2.7713    0.0000 O   0  0  0  0  0  0  0  0  0  0  0  0
    2.4000    1.3856    0.0000 C   0  0  0  0  0  0  0  0  0  0  0  0
    1.6000    0.0000    0.0000 N   0  0  0  0  0  0  0  0  0  0  0  0
    2.4000   -1.3856    0.0000 H   0  0  0  0  0  0  0  0  0  0  0  0
   -0.0001    0.0000    0.0000 C   0  0  0  0  0  0  0  0  0  0  0  0
   -1.5999    0.0000    0.0000 C   0  0  0  0  0  0  0  0  0  0  0  0
   -3.2000    0.0000    0.0000 H   0  0  0  0  0  0  0  0  0  0  0  0
   -2.4000   -1.3856    0.0000 H   0  0  0  0  0  0  0  0  0  0  0  0
   -2.4000    1.3856    0.0000 H   0  0  0  0  0  0  0  0  0  0  0  0
   -0.0001   -1.6000    0.0000 C   0  0  0  0  0  0  0  0  0  0  0  0
   -0.0001   -3.2000    0.0000 H   0  0  0  0  0  0  0  0  0  0  0  0
   -1.3857   -2.4001    0.0000 H   0  0  0  0  0  0  0  0  0  0  0  0
    1.3855   -2.4001    0.0000 H   0  0  0  0  0  0  0  0  0  0  0  0
   -0.0001    1.6000    0.0000 C   0  0  0  0  0  0  0  0  0  0  0  0
   -0.0001    3.2000    0.0000 C   0  0  0  0  0  0  0  0  0  0  0  0
   -0.0001    4.8000    0.0000 H   0  0  0  0  0  0  0  0  0  0  0  0
    4.0001    1.3856    0.0000 C   0  0  0  0  0  0  0  0  0  0  0  0
    4.7999    2.7713    0.0000 C   0  0  0  0  0  0  0  0  0  0  0  0
    4.0001    4.1569    0.0000 H   0  0  0  0  0  0  0  0  0  0  0  0
    6.4000    2.7713    0.0000 C   0  0  0  0  0  0  0  0  0  0  0  0
    7.2000    4.1569    0.0000 H   0  0  0  0  0  0  0  0  0  0  0  0
    7.2000    1.3856    0.0000 C   0  0  0  0  0  0  0  0  0  0  0  0
    8.8001    1.3856    0.0000 O   0  0  0  0  0  0  0  0  0  0  0  0
    9.5999    2.7713    0.0000 C   0  0  0  0  0  0  0  0  0  0  0  0
   11.2000    2.7713    0.0000 H   0  0  0  0  0  0  0  0  0  0  0  0
   10.4000    4.1569    0.0000 H   0  0  0  0  0  0  0  0  0  0  0  0
   10.4000    1.3856    0.0000 H   0  0  0  0  0  0  0  0  0  0  0  0
    6.4000    0.0000    0.0000 C   0  0  0  0  0  0  0  0  0  0  0  0
    7.2000   -1.3856    0.0000 H   0  0  0  0  0  0  0  0  0  0  0  0
    4.7999    0.0000    0.0000 C   0  0  0  0  0  0  0  0  0  0  0  0
    4.0001   -1.3856    0.0000 H   0  0  0  0  0  0  0  0  0  0  0  0
  1  2  2  0  0  0  0
  2  3  1  0  0  0  0
  3  4  1  0  0  0  0
  3  5  1  0  0  0  0
  5  6  1  0  0  0  0
  6  7  1  0  0  0  0
  6  8  1  0  0  0  0
  6  9  1  0  0  0  0
  5 10  1  0  0  0  0
 10 11  1  0  0  0  0
 10 12  1  0  0  0  0
 10 13  1  0  0  0  0
  5 14  1  0  0  0  0
 14 15  3  0  0  0  0
 15 16  1  0  0  0  0
  2 17  1  0  0  0  0
 17 18  1  0  0  0  0
 18 19  1  0  0  0  0
 18 20  2  0  0  0  0
 20 21  1  0  0  0  0
 20 22  1  0  0  0  0
 22 23  1  0  0  0  0
 23 24  1  0  0  0  0
 24 25  1  0  0  0  0
 24 26  1  0  0  0  0
 24 27  1  0  0  0  0
 22 28  2  0  0  0  0
 28 29  1  0  0  0  0
 28 30  1  0  0  0  0
 30 17  2  0  0  0  0
 30 31  1  0  0  0  0
M  END
> <ChemID>
100654

> <source_casrn>
39108-81-1

> <CAS>
39108-81-1

> <SMILES>
COc1ccc(cc1)C(=O)NC(C)(C)C#C

> <NAME>
N-(1,1-DIMETHYL-2-PROPYNYL)-4-METHOXYBENZAMIDE

> <preferred_name>
N-(1,1-dimethyl-2-propynyl)-4-methoxybenzamide

> <iupac>
4-methoxy-N-(2-methylbut-3-yn-2-yl)benzamide

> <MPID>
99909

> <dsstox_substance_id>
DTXSID60192354

> <Canonical_QSARr>
COc1ccc(cc1)C(=O)NC(C)(C)C#C

> <InChI_Code_QSARr>
InChI=1S/C13H15NO2/c1-5-13(2,3)14-12(15)10-6-8-11(16-4)9-7-10/h1,6-9H,2-4H3,(H,14,15)

> <InChI Key_QSARr>
AMEGQBUWQVQJSA-UHFFFAOYSA-N

> <LogKOC>
1.83

$$$$
100660
  -INDIGO-08031722282D

 25 26  0  0  0  0  0  0  0  0999 V2000
   -0.7999    1.3856    0.0000 C   0  0  0  0  0  0  0  0  0  0  0  0
    0.0001    2.7713    0.0000 H   0  0  0  0  0  0  0  0  0  0  0  0
    0.0001    0.0000    0.0000 C   0  0  0  0  0  0  0  0  0  0  0  0
    1.6001    0.0000    0.0000 C   0  0  0  0  0  0  0  0  0  0  0  0
    2.3999    1.3856    0.0000 N   0  0  0  0  0  0  0  0  0  0  0  0
    3.9999    1.3856    0.0000 N   0  0  0  0  0  0  0  0  0  0  0  0
    4.8000    0.0000    0.0000 C   0  0  0  0  0  0  0  0  0  0  0  0
    6.4000    0.0000    0.0000 C   0  0  0  0  0  0  0  0  0  0  0  0
    8.0000    0.0000    0.0000 H   0  0  0  0  0  0  0  0  0  0  0  0
    7.2000    1.3856    0.0000 H   0  0  0  0  0  0  0  0  0  0  0  0
    7.2000   -1.3856    0.0000 H   0  0  0  0  0  0  0  0  0  0  0  0
    3.9999   -1.3856    0.0000 N   0  0  0  0  0  0  0  0  0  0  0  0
    4.8000   -2.7713    0.0000 N   0  0  0  0  0  0  0  0  0  0  0  0
    3.9999   -4.1569    0.0000 H   0  0  0  0  0  0  0  0  0  0  0  0
    6.4000   -2.7713    0.0000 H   0  0  0  0  0  0  0  0  0  0  0  0
    2.3999   -1.3856    0.0000 C   0  0  0  0  0  0  0  0  0  0  0  0
    1.6001   -2.7713    0.0000 O   0  0  0  0  0  0  0  0  0  0  0  0
   -0.7999   -1.3856    0.0000 C   0  0  0  0  0  0  0  0  0  0  0  0
    0.0001   -2.7713    0.0000 H   0  0  0  0  0  0  0  0  0  0  0  0
   -2.4000   -1.3856    0.0000 C   0  0  0  0  0  0  0  0  0  0  0  0
   -3.2000   -2.7713    0.0000 H   0  0  0  0  0  0  0  0  0  0  0  0
   -3.2000    0.0000    0.0000 C   0  0  0  0  0  0  0  0  0  0  0  0
   -4.8000    0.0000    0.0000 H   0  0  0  0  0  0  0  0  0  0  0  0
   -2.4000    1.3856    0.0000 C   0  0  0  0  0  0  0  0  0  0  0  0
   -3.2000    2.7713    0.0000 H   0  0  0  0  0  0  0  0  0  0  0  0
  1  2  1  0  0  0  0
  1  3  1  0  0  0  0
  3  4  1  0  0  0  0
  4  5  2  0  0  0  0
  5  6  1  0  0  0  0
  6  7  2  0  0  0  0
  7  8  1  0  0  0  0
  8  9  1  0  0  0  0
  8 10  1  0  0  0  0
  8 11  1  0  0  0  0
  7 12  1  0  0  0  0
 12 13  1  0  0  0  0
 13 14  1  0  0  0  0
 13 15  1  0  0  0  0
 12 16  1  0  0  0  0
 16  4  1  0  0  0  0
 16 17  2  0  0  0  0
  3 18  2  0  0  0  0
 18 19  1  0  0  0  0
 18 20  1  0  0  0  0
 20 21  1  0  0  0  0
 20 22  2  0  0  0  0
 22 23  1  0  0  0  0
 22 24  1  0  0  0  0
 24  1  2  0  0  0  0
 24 25  1  0  0  0  0
M  END
> <ChemID>
100660

> <source_casrn>
41394-05-2

> <CAS>
41394-05-2

> <SMILES>
CC1=NN=C(C(=O)N1N)c1ccccc1

> <NAME>
Metamitron

> <preferred_name>
Metamitron

> <iupac>
4-amino-3-methyl-6-phenyl-1,2,4-triazin-5(4H)-one

> <MPID>
99913

> <dsstox_substance_id>
DTXSID7047568

> <Canonical_QSARr>
CC1=NN=C(C(=O)N1N)c1ccccc1

> <InChI_Code_QSARr>
InChI=1S/C10H10N4O/c1-7-12-13-9(10(15)14(7)11)8-5-3-2-4-6-8/h2-6H,11H2,1H3

> <InChI Key_QSARr>
VHCNQEUWZYOAEV-UHFFFAOYSA-N

> <LogKOC>
2.17

$$$$
100664
  -INDIGO-08031722282D

 31 32  0  0  0  0  0  0  0  0999 V2000
    0.0000    0.0000    0.0000 C   0  0  0  0  0  0  0  0  0  0  0  0
    1.3857    0.8000    0.0000 C   0  0  0  0  0  0  0  0  0  0  0  0
    2.7712    0.0000    0.0000 O   0  0  0  0  0  0  0  0  0  0  0  0
    1.3857    2.4000    0.0000 O   0  0  0  0  0  0  0  0  0  0  0  0
    2.7712    3.2001    0.0000 C   0  0  0  0  0  0  0  0  0  0  0  0
    4.1569    4.0000    0.0000 H   0  0  0  0  0  0  0  0  0  0  0  0
    2.7712    4.8000    0.0000 H   0  0  0  0  0  0  0  0  0  0  0  0
    4.1569    2.4000    0.0000 H   0  0  0  0  0  0  0  0  0  0  0  0
    0.0000   -1.6000    0.0000 C   0  0  0  0  0  0  0  0  0  0  0  0
    1.3857   -2.4001    0.0000 N   0  0  0  0  0  0  0  0  0  0  0  0
    1.3857   -4.0000    0.0000 O   0  0  0  0  0  0  0  0  0  0  0  0
    2.7712   -1.6000    0.0000 O   0  0  0  0  0  0  0  0  0  0  0  0
   -1.3857   -2.4001    0.0000 C   0  0  0  0  0  0  0  0  0  0  0  0
   -1.3857   -4.0000    0.0000 H   0  0  0  0  0  0  0  0  0  0  0  0
   -2.7712   -1.6000    0.0000 C   0  0  0  0  0  0  0  0  0  0  0  0
   -4.1569   -2.4001    0.0000 H   0  0  0  0  0  0  0  0  0  0  0  0
   -2.7712    0.0000    0.0000 C   0  0  0  0  0  0  0  0  0  0  0  0
   -4.1569    0.8000    0.0000 O   0  0  0  0  0  0  0  0  0  0  0  0
   -5.7327    0.5221    0.0000 C   0  0  0  0  0  0  0  0  0  0  0  0
   -6.2798   -0.9814    0.0000 C   0  0  0  0  0  0  0  0  0  0  0  0
   -5.2514   -2.2070    0.0000 Cl  0  0  0  0  0  0  0  0  0  0  0  0
   -7.8555   -1.2592    0.0000 C   0  0  0  0  0  0  0  0  0  0  0  0
   -8.4029   -2.7628    0.0000 H   0  0  0  0  0  0  0  0  0  0  0  0
   -8.8839   -0.0335    0.0000 C   0  0  0  0  0  0  0  0  0  0  0  0
  -10.4597   -0.3113    0.0000 Cl  0  0  0  0  0  0  0  0  0  0  0  0
   -8.3368    1.4700    0.0000 C   0  0  0  0  0  0  0  0  0  0  0  0
   -9.3653    2.6957    0.0000 H   0  0  0  0  0  0  0  0  0  0  0  0
   -6.7611    1.7478    0.0000 C   0  0  0  0  0  0  0  0  0  0  0  0
   -6.2138    3.2514    0.0000 H   0  0  0  0  0  0  0  0  0  0  0  0
   -1.3857    0.8000    0.0000 C   0  0  0  0  0  0  0  0  0  0  0  0
   -1.3857    2.4000    0.0000 H   0  0  0  0  0  0  0  0  0  0  0  0
  1  2  1  0  0  0  0
  2  3  2  0  0  0  0
  2  4  1  0  0  0  0
  4  5  1  0  0  0  0
  5  6  1  0  0  0  0
  5  7  1  0  0  0  0
  5  8  1  0  0  0  0
  1  9  1  0  0  0  0
  9 10  1  0  0  0  0
 10 11  1  0  0  0  0
 10 12  2  0  0  0  0
  9 13  2  0  0  0  0
 13 14  1  0  0  0  0
 13 15  1  0  0  0  0
 15 16  1  0  0  0  0
 15 17  2  0  0  0  0
 17 18  1  0  0  0  0
 18 19  1  0  0  0  0
 19 20  1  0  0  0  0
 20 21  1  0  0  0  0
 20 22  2  0  0  0  0
 22 23  1  0  0  0  0
 22 24  1  0  0  0  0
 24 25  1  0  0  0  0
 24 26  2  0  0  0  0
 26 27  1  0  0  0  0
 26 28  1  0  0  0  0
 28 19  2  0  0  0  0
 28 29  1  0  0  0  0
 17 30  1  0  0  0  0
 30  1  2  0  0  0  0
 30 31  1  0  0  0  0
M  CHG  2  10   1  11  -1
M  END
> <ChemID>
100664

> <source_casrn>
42576-02-3

> <CAS>
42576-02-3

> <SMILES>
COC(=O)c1cc(ccc1[N+]([O-])=O)Oc1ccc(Cl)cc1Cl

> <NAME>
BIFENOX

> <preferred_name>
Bifenox

> <iupac>
methyl 5-(2,4-dichlorophenoxy)-2-nitrobenzoate

> <MPID>
99917

> <dsstox_substance_id>
DTXSID1040320

> <Canonical_QSARr>
COC(=O)c1cc(ccc1[N+]([O-])=O)Oc1ccc(Cl)cc1Cl

> <InChI_Code_QSARr>
InChI=1S/C14H9Cl2NO5/c1-21-14(18)10-7-9(3-4-12(10)17(19)20)22-13-5-2-8(15)6-11(13)16/h2-7H,1H3

> <InChI Key_QSARr>
SUSRORUBZHMPCO-UHFFFAOYSA-N

> <LogKOC>
4.0

$$$$
100670
  -INDIGO-08031722282D

 41 41  0  0  0  0  0  0  0  0999 V2000
   -1.3856    0.8001    0.0000 N   0  0  0  0  0  0  0  0  0  0  0  0
   -2.7713    0.0000    0.0000 C   0  0  0  0  0  0  0  0  0  0  0  0
   -2.7713   -1.6000    0.0000 C   0  0  0  0  0  0  0  0  0  0  0  0
   -1.5456   -2.6284    0.0000 C   0  0  0  0  0  0  0  0  0  0  0  0
   -0.3199   -3.6569    0.0000 H   0  0  0  0  0  0  0  0  0  0  0  0
   -1.8235   -4.2042    0.0000 H   0  0  0  0  0  0  0  0  0  0  0  0
   -0.0421   -2.0812    0.0000 H   0  0  0  0  0  0  0  0  0  0  0  0
   -4.1570   -2.4000    0.0000 C   0  0  0  0  0  0  0  0  0  0  0  0
   -4.1570   -4.0000    0.0000 H   0  0  0  0  0  0  0  0  0  0  0  0
   -5.5425   -1.6000    0.0000 C   0  0  0  0  0  0  0  0  0  0  0  0
   -6.9282   -2.4000    0.0000 H   0  0  0  0  0  0  0  0  0  0  0  0
   -5.5425    0.0000    0.0000 C   0  0  0  0  0  0  0  0  0  0  0  0
   -6.9282    0.8001    0.0000 H   0  0  0  0  0  0  0  0  0  0  0  0
   -4.1570    0.8001    0.0000 C   0  0  0  0  0  0  0  0  0  0  0  0
   -4.1570    2.4000    0.0000 C   0  0  0  0  0  0  0  0  0  0  0  0
   -2.5948    2.0537    0.0000 H   0  0  0  0  0  0  0  0  0  0  0  0
   -3.6758    3.9260    0.0000 H   0  0  0  0  0  0  0  0  0  0  0  0
   -5.5425    3.1999    0.0000 C   0  0  0  0  0  0  0  0  0  0  0  0
   -6.9282    4.0000    0.0000 H   0  0  0  0  0  0  0  0  0  0  0  0
   -5.5425    4.8000    0.0000 H   0  0  0  0  0  0  0  0  0  0  0  0
   -6.9282    2.4000    0.0000 H   0  0  0  0  0  0  0  0  0  0  0  0
   -1.6635    2.3756    0.0000 C   0  0  0  0  0  0  0  0  0  0  0  0
   -3.1670    2.9229    0.0000 O   0  0  0  0  0  0  0  0  0  0  0  0
   -0.4378    3.4041    0.0000 C   0  0  0  0  0  0  0  0  0  0  0  0
   -0.7156    4.9798    0.0000 H   0  0  0  0  0  0  0  0  0  0  0  0
    0.7879    4.4326    0.0000 H   0  0  0  0  0  0  0  0  0  0  0  0
   -1.9413    3.9514    0.0000 Cl  0  0  0  0  0  0  0  0  0  0  0  0
    0.0001    0.0000    0.0000 C   0  0  0  0  0  0  0  0  0  0  0  0
   -0.8000   -1.3857    0.0000 H   0  0  0  0  0  0  0  0  0  0  0  0
    0.8000    1.3857    0.0000 C   0  0  0  0  0  0  0  0  0  0  0  0
    0.5912    2.9719    0.0000 H   0  0  0  0  0  0  0  0  0  0  0  0
   -0.4693    2.3597    0.0000 H   0  0  0  0  0  0  0  0  0  0  0  0
    2.4000    1.3857    0.0000 O   0  0  0  0  0  0  0  0  0  0  0  0
    3.2001    2.7713    0.0000 C   0  0  0  0  0  0  0  0  0  0  0  0
    4.8000    2.7713    0.0000 H   0  0  0  0  0  0  0  0  0  0  0  0
    4.0000    4.1569    0.0000 H   0  0  0  0  0  0  0  0  0  0  0  0
    4.0000    1.3857    0.0000 H   0  0  0  0  0  0  0  0  0  0  0  0
    1.3856   -0.8000    0.0000 C   0  0  0  0  0  0  0  0  0  0  0  0
    2.7713   -1.6000    0.0000 H   0  0  0  0  0  0  0  0  0  0  0  0
    2.7713    0.0000    0.0000 H   0  0  0  0  0  0  0  0  0  0  0  0
    1.3856   -2.4000    0.0000 H   0  0  0  0  0  0  0  0  0  0  0  0
  1  2  1  0  0  0  0
  2  3  1  0  0  0  0
  3  4  1  0  0  0  0
  4  5  1  0  0  0  0
  4  6  1  0  0  0  0
  4  7  1  0  0  0  0
  3  8  2  0  0  0  0
  8  9  1  0  0  0  0
  8 10  1  0  0  0  0
 10 11  1  0  0  0  0
 10 12  2  0  0  0  0
 12 13  1  0  0  0  0
 12 14  1  0  0  0  0
 14  2  2  0  0  0  0
 14 15  1  0  0  0  0
 15 16  1  0  0  0  0
 15 17  1  0  0  0  0
 15 18  1  0  0  0  0
 18 19  1  0  0  0  0
 18 20  1  0  0  0  0
 18 21  1  0  0  0  0
  1 22  1  0  0  0  0
 22 23  2  0  0  0  0
 22 24  1  0  0  0  0
 24 25  1  0  0  0  0
 24 26  1  0  0  0  0
 24 27  1  0  0  0  0
  1 28  1  0  0  0  0
 28 29  1  0  0  0  0
 28 30  1  0  0  0  0
 30 31  1  0  0  0  0
 30 32  1  0  0  0  0
 30 33  1  0  0  0  0
 33 34  1  0  0  0  0
 34 35  1  0  0  0  0
 34 36  1  0  0  0  0
 34 37  1  0  0  0  0
 28 38  1  0  0  0  0
 38 39  1  0  0  0  0
 38 40  1  0  0  0  0
 38 41  1  0  0  0  0
M  END
> <ChemID>
100670

> <source_casrn>
51218-45-2

> <CAS>
51218-45-2

> <SMILES>
Cc1cccc(CC)c1N(C(C)COC)C(=O)CCl

> <NAME>
METOLACHLOR

> <preferred_name>
Metolachlor

> <iupac>
2-chloro-N-(2-ethyl-6-methylphenyl)-N-(1-methoxypropan-2-yl)acetamide

> <MPID>
99922

> <dsstox_substance_id>
DTXSID4022448

> <Canonical_QSARr>
Cc1cccc(CC)c1N(C(C)COC)C(=O)CCl

> <InChI_Code_QSARr>
InChI=1S/C15H22ClNO2/c1-5-13-8-6-7-11(2)15(13)17(14(18)9-16)12(3)10-19-4/h6-8,12H,5,9-10H2,1-4H3

> <InChI Key_QSARr>
WVQBLGZPHOPPFO-UHFFFAOYSA-N

> <LogKOC>
2.46

$$$$
100675
  -INDIGO-08031722282D

 23 24  0  0  0  0  0  0  0  0999 V2000
    5.7099   -1.5913    0.0000 S   0  0  0  0  0  0  0  0  0  0  0  0
    7.2749   -1.9239    0.0000 N   0  0  0  0  0  0  0  0  0  0  0  0
    8.0748   -0.5382    0.0000 N   0  0  0  0  0  0  0  0  0  0  0  0
    7.0043    0.6508    0.0000 C   0  0  0  0  0  0  0  0  0  0  0  0
    7.3369    2.2158    0.0000 H   0  0  0  0  0  0  0  0  0  0  0  0
    5.5426   -0.0000    0.0000 C   0  0  0  0  0  0  0  0  0  0  0  0
    4.1570    0.8000    0.0000 N   0  0  0  0  0  0  0  0  0  0  0  0
    4.1570    2.4000    0.0000 H   0  0  0  0  0  0  0  0  0  0  0  0
    2.7713   -0.0000    0.0000 C   0  0  0  0  0  0  0  0  0  0  0  0
    2.7713   -1.6000    0.0000 O   0  0  0  0  0  0  0  0  0  0  0  0
    1.3857    0.8000    0.0000 N   0  0  0  0  0  0  0  0  0  0  0  0
    1.3857    2.4000    0.0000 H   0  0  0  0  0  0  0  0  0  0  0  0
    0.0000   -0.0000    0.0000 C   0  0  0  0  0  0  0  0  0  0  0  0
   -1.3856    0.8000    0.0000 C   0  0  0  0  0  0  0  0  0  0  0  0
   -1.3856    2.4000    0.0000 H   0  0  0  0  0  0  0  0  0  0  0  0
   -2.7713   -0.0000    0.0000 C   0  0  0  0  0  0  0  0  0  0  0  0
   -4.1569    0.8000    0.0000 H   0  0  0  0  0  0  0  0  0  0  0  0
   -2.7713   -1.6000    0.0000 C   0  0  0  0  0  0  0  0  0  0  0  0
   -4.1569   -2.4000    0.0000 H   0  0  0  0  0  0  0  0  0  0  0  0
   -1.3856   -2.4000    0.0000 C   0  0  0  0  0  0  0  0  0  0  0  0
   -1.3856   -4.0000    0.0000 H   0  0  0  0  0  0  0  0  0  0  0  0
    0.0000   -1.6000    0.0000 C   0  0  0  0  0  0  0  0  0  0  0  0
    1.3857   -2.4000    0.0000 H   0  0  0  0  0  0  0  0  0  0  0  0
  1  2  1  0  0  0  0
  2  3  2  0  0  0  0
  3  4  1  0  0  0  0
  4  5  1  0  0  0  0
  4  6  2  0  0  0  0
  6  1  1  0  0  0  0
  6  7  1  0  0  0  0
  7  8  1  0  0  0  0
  7  9  1  0  0  0  0
  9 10  2  0  0  0  0
  9 11  1  0  0  0  0
 11 12  1  0  0  0  0
 11 13  1  0  0  0  0
 13 14  1  0  0  0  0
 14 15  1  0  0  0  0
 14 16  2  0  0  0  0
 16 17  1  0  0  0  0
 16 18  1  0  0  0  0
 18 19  1  0  0  0  0
 18 20  2  0  0  0  0
 20 21  1  0  0  0  0
 20 22  1  0  0  0  0
 22 13  2  0  0  0  0
 22 23  1  0  0  0  0
M  END
> <ChemID>
100675

> <source_casrn>
51707-55-2

> <CAS>
51707-55-2

> <SMILES>
O=C(Nc1ccccc1)Nc1c[n][n][s]1

> <NAME>
THIDIAZURON

> <preferred_name>
Thidiazuron

> <iupac>
1-phenyl-3-(1,2,3-thiadiazol-5-yl)urea

> <MPID>
99926

> <dsstox_substance_id>
DTXSID0032651

> <Canonical_QSARr>
O=C(Nc1ccccc1)Nc1c[n][n][s]1

> <InChI_Code_QSARr>
InChI=1S/C9H8N4OS/c14-9(12-8-6-10-13-15-8)11-7-4-2-1-3-5-7/h1-6H,(H2,11,12,14)

> <InChI Key_QSARr>
HFCYZXMHUIHAQI-UHFFFAOYSA-N

> <LogKOC>
2.04

$$$$
100679
  -INDIGO-08031722282D

 41 41  0  0  0  0  0  0  0  0999 V2000
  -12.0995   -2.1856    0.0000 Cl  0  0  0  0  0  0  0  0  0  0  0  0
  -11.2996   -3.5713    0.0000 C   0  0  0  0  0  0  0  0  0  0  0  0
   -9.6996   -3.5713    0.0000 C   0  0  0  0  0  0  0  0  0  0  0  0
   -8.8994   -2.1856    0.0000 O   0  0  0  0  0  0  0  0  0  0  0  0
   -9.6996   -0.8000    0.0000 C   0  0  0  0  0  0  0  0  0  0  0  0
  -11.0851   -1.6001    0.0000 H   0  0  0  0  0  0  0  0  0  0  0  0
   -8.3138    0.0000    0.0000 C   0  0  0  0  0  0  0  0  0  0  0  0
   -8.3138    1.5999    0.0000 O   0  0  0  0  0  0  0  0  0  0  0  0
   -6.9283   -0.8000    0.0000 O   0  0  0  0  0  0  0  0  0  0  0  0
   -5.5425    0.0000    0.0000 C   0  0  0  0  0  0  0  0  0  0  0  0
   -4.9303    1.4783    0.0000 H   0  0  0  0  0  0  0  0  0  0  0  0
   -6.1548    1.4783    0.0000 H   0  0  0  0  0  0  0  0  0  0  0  0
   -4.1570   -0.8000    0.0000 C   0  0  0  0  0  0  0  0  0  0  0  0
   -4.7692   -2.2782    0.0000 H   0  0  0  0  0  0  0  0  0  0  0  0
   -3.5448   -2.2782    0.0000 H   0  0  0  0  0  0  0  0  0  0  0  0
   -2.7712    0.0000    0.0000 O   0  0  0  0  0  0  0  0  0  0  0  0
   -1.3857   -0.8000    0.0000 C   0  0  0  0  0  0  0  0  0  0  0  0
   -1.9979   -2.2782    0.0000 H   0  0  0  0  0  0  0  0  0  0  0  0
   -0.7734   -2.2782    0.0000 H   0  0  0  0  0  0  0  0  0  0  0  0
    0.0001    0.0000    0.0000 C   0  0  0  0  0  0  0  0  0  0  0  0
    0.6123    1.4781    0.0000 H   0  0  0  0  0  0  0  0  0  0  0  0
   -0.6124    1.4781    0.0000 H   0  0  0  0  0  0  0  0  0  0  0  0
    1.3856   -0.8000    0.0000 C   0  0  0  0  0  0  0  0  0  0  0  0
    0.7734   -2.2782    0.0000 H   0  0  0  0  0  0  0  0  0  0  0  0
    1.9979   -2.2782    0.0000 H   0  0  0  0  0  0  0  0  0  0  0  0
    2.7714    0.0000    0.0000 C   0  0  0  0  0  0  0  0  0  0  0  0
    4.1569    0.8000    0.0000 H   0  0  0  0  0  0  0  0  0  0  0  0
    4.1569   -0.8000    0.0000 H   0  0  0  0  0  0  0  0  0  0  0  0
    2.7714    1.5999    0.0000 H   0  0  0  0  0  0  0  0  0  0  0  0
  -10.4996    0.5857    0.0000 C   0  0  0  0  0  0  0  0  0  0  0  0
  -11.2996    1.9713    0.0000 H   0  0  0  0  0  0  0  0  0  0  0  0
   -9.6996    1.9713    0.0000 H   0  0  0  0  0  0  0  0  0  0  0  0
  -12.0995    0.5857    0.0000 H   0  0  0  0  0  0  0  0  0  0  0  0
   -8.8994   -4.9570    0.0000 C   0  0  0  0  0  0  0  0  0  0  0  0
   -7.2994   -4.9570    0.0000 H   0  0  0  0  0  0  0  0  0  0  0  0
   -9.6996   -6.3426    0.0000 C   0  0  0  0  0  0  0  0  0  0  0  0
   -8.8994   -7.7282    0.0000 H   0  0  0  0  0  0  0  0  0  0  0  0
  -11.2996   -6.3426    0.0000 C   0  0  0  0  0  0  0  0  0  0  0  0
  -12.0995   -7.7282    0.0000 Cl  0  0  0  0  0  0  0  0  0  0  0  0
  -12.0995   -4.9570    0.0000 C   0  0  0  0  0  0  0  0  0  0  0  0
  -13.6995   -4.9570    0.0000 H   0  0  0  0  0  0  0  0  0  0  0  0
  1  2  1  0  0  0  0
  2  3  1  0  0  0  0
  3  4  1  0  0  0  0
  4  5  1  0  0  0  0
  5  6  1  0  0  0  0
  5  7  1  0  0  0  0
  7  8  2  0  0  0  0
  7  9  1  0  0  0  0
  9 10  1  0  0  0  0
 10 11  1  0  0  0  0
 10 12  1  0  0  0  0
 10 13  1  0  0  0  0
 13 14  1  0  0  0  0
 13 15  1  0  0  0  0
 13 16  1  0  0  0  0
 16 17  1  0  0  0  0
 17 18  1  0  0  0  0
 17 19  1  0  0  0  0
 17 20  1  0  0  0  0
 20 21  1  0  0  0  0
 20 22  1  0  0  0  0
 20 23  1  0  0  0  0
 23 24  1  0  0  0  0
 23 25  1  0  0  0  0
 23 26  1  0  0  0  0
 26 27  1  0  0  0  0
 26 28  1  0  0  0  0
 26 29  1  0  0  0  0
  5 30  1  0  0  0  0
 30 31  1  0  0  0  0
 30 32  1  0  0  0  0
 30 33  1  0  0  0  0
  3 34  2  0  0  0  0
 34 35  1  0  0  0  0
 34 36  1  0  0  0  0
 36 37  1  0  0  0  0
 36 38  2  0  0  0  0
 38 39  1  0  0  0  0
 38 40  1  0  0  0  0
 40  2  2  0  0  0  0
 40 41  1  0  0  0  0
M  END
> <ChemID>
100679

> <source_casrn>
53404-31-2

> <CAS>
53404-31-2

> <SMILES>
O=C(OCCOCCCC)C(Oc(c(cc(c1)Cl)Cl)c1)C

> <NAME>
Propanoic acid, 2-(2,4-dichlorophenoxy)-, 2-buto

> <preferred_name>
Dichlorprop butoxyethyl ester

> <iupac>
2-butoxyethyl 2-(2,4-dichlorophenoxy)propanoate

> <MPID>
99930

> <dsstox_substance_id>
DTXSID0041858

> <Canonical_QSARr>
CCCCOCCOC(=O)C(C)Oc1ccc(Cl)cc1Cl

> <InChI_Code_QSARr>
InChI=1S/C15H20Cl2O4/c1-3-4-7-19-8-9-20-15(18)11(2)21-14-6-5-12(16)10-13(14)17/h5-6,10-11H,3-4,7-9H2,1-2H3

> <InChI Key_QSARr>
NCMJQZVNCFTQPG-UHFFFAOYSA-N

> <LogKOC>
3.0

$$$$
100683
  -INDIGO-08031722282D

 37 37  0  0  0  0  0  0  0  0999 V2000
    2.3999    1.3856    0.0000 C   0  0  0  0  0  0  0  0  0  0  0  0
    2.1221    2.9613    0.0000 N   0  0  0  0  0  0  0  0  0  0  0  0
    3.3479    3.9898    0.0000 O   0  0  0  0  0  0  0  0  0  0  0  0
    0.6187    3.5085    0.0000 O   0  0  0  0  0  0  0  0  0  0  0  0
    1.6001    0.0000    0.0000 C   0  0  0  0  0  0  0  0  0  0  0  0
    0.0000    0.0000    0.0000 N   0  0  0  0  0  0  0  0  0  0  0  0
   -0.8000   -1.3857    0.0000 C   0  0  0  0  0  0  0  0  0  0  0  0
   -0.5912   -2.9719    0.0000 H   0  0  0  0  0  0  0  0  0  0  0  0
    0.4693   -2.3596    0.0000 H   0  0  0  0  0  0  0  0  0  0  0  0
   -2.3035   -1.9329    0.0000 C   0  0  0  0  0  0  0  0  0  0  0  0
   -3.5293   -0.9044    0.0000 C   0  0  0  0  0  0  0  0  0  0  0  0
   -5.0327   -1.4516    0.0000 H   0  0  0  0  0  0  0  0  0  0  0  0
   -3.2512    0.6713    0.0000 H   0  0  0  0  0  0  0  0  0  0  0  0
   -2.5813   -3.5086    0.0000 C   0  0  0  0  0  0  0  0  0  0  0  0
   -2.8593   -5.0843    0.0000 H   0  0  0  0  0  0  0  0  0  0  0  0
   -4.0849   -4.0558    0.0000 H   0  0  0  0  0  0  0  0  0  0  0  0
   -1.3557   -4.5371    0.0000 H   0  0  0  0  0  0  0  0  0  0  0  0
   -0.8000    1.3856    0.0000 C   0  0  0  0  0  0  0  0  0  0  0  0
    0.4693    2.3597    0.0000 H   0  0  0  0  0  0  0  0  0  0  0  0
   -0.5912    2.9720    0.0000 H   0  0  0  0  0  0  0  0  0  0  0  0
   -2.4001    1.3856    0.0000 C   0  0  0  0  0  0  0  0  0  0  0  0
   -3.1999    2.7713    0.0000 H   0  0  0  0  0  0  0  0  0  0  0  0
   -4.0000    1.3856    0.0000 H   0  0  0  0  0  0  0  0  0  0  0  0
   -1.6001    2.7713    0.0000 H   0  0  0  0  0  0  0  0  0  0  0  0
    2.3999   -1.3857    0.0000 C   0  0  0  0  0  0  0  0  0  0  0  0
    2.1221   -2.9614    0.0000 N   0  0  0  0  0  0  0  0  0  0  0  0
    0.6187   -3.5086    0.0000 O   0  0  0  0  0  0  0  0  0  0  0  0
    3.3479   -3.9897    0.0000 O   0  0  0  0  0  0  0  0  0  0  0  0
    4.0000   -1.3857    0.0000 C   0  0  0  0  0  0  0  0  0  0  0  0
    4.8000   -2.7713    0.0000 H   0  0  0  0  0  0  0  0  0  0  0  0
    4.8000    0.0000    0.0000 C   0  0  0  0  0  0  0  0  0  0  0  0
    6.3999    0.0000    0.0000 C   0  0  0  0  0  0  0  0  0  0  0  0
    8.0000    0.0000    0.0000 F   0  0  0  0  0  0  0  0  0  0  0  0
    7.2000   -1.3857    0.0000 F   0  0  0  0  0  0  0  0  0  0  0  0
    7.2000    1.3856    0.0000 F   0  0  0  0  0  0  0  0  0  0  0  0
    4.0000    1.3856    0.0000 C   0  0  0  0  0  0  0  0  0  0  0  0
    4.8000    2.7713    0.0000 H   0  0  0  0  0  0  0  0  0  0  0  0
  1  2  1  0  0  0  0
  2  3  1  0  0  0  0
  2  4  2  0  0  0  0
  1  5  1  0  0  0  0
  5  6  1  0  0  0  0
  6  7  1  0  0  0  0
  7  8  1  0  0  0  0
  7  9  1  0  0  0  0
  7 10  1  0  0  0  0
 10 11  2  0  0  0  0
 11 12  1  0  0  0  0
 11 13  1  0  0  0  0
 10 14  1  0  0  0  0
 14 15  1  0  0  0  0
 14 16  1  0  0  0  0
 14 17  1  0  0  0  0
  6 18  1  0  0  0  0
 18 19  1  0  0  0  0
 18 20  1  0  0  0  0
 18 21  1  0  0  0  0
 21 22  1  0  0  0  0
 21 23  1  0  0  0  0
 21 24  1  0  0  0  0
  5 25  2  0  0  0  0
 25 26  1  0  0  0  0
 26 27  1  0  0  0  0
 26 28  2  0  0  0  0
 25 29  1  0  0  0  0
 29 30  1  0  0  0  0
 29 31  2  0  0  0  0
 31 32  1  0  0  0  0
 32 33  1  0  0  0  0
 32 34  1  0  0  0  0
 32 35  1  0  0  0  0
 31 36  1  0  0  0  0
 36  1  2  0  0  0  0
 36 37  1  0  0  0  0
M  CHG  4   2   1   3  -1  26   1  27  -1
M  END
> <ChemID>
100683

> <source_casrn>
55283-68-6

> <CAS>
55283-68-6

> <SMILES>
CC(=C)CN(CC)c1c(cc(cc1[N+]([O-])=O)C(F)(F)F)[N+]([O-])=O

> <NAME>
ETHALFLURALIN

> <preferred_name>
Ethalfluralin

> <iupac>
N-ethyl-N-(2-methylprop-2-en-1-yl)-2,6-dinitro-4-(trifluoromethyl)aniline

> <MPID>
99934

> <dsstox_substance_id>
DTXSID8032386

> <Canonical_QSARr>
CC(=C)CN(CC)c1c(cc(cc1[N+]([O-])=O)C(F)(F)F)[N+]([O-])=O

> <InChI_Code_QSARr>
InChI=1S/C13H14F3N3O4/c1-4-17(7-8(2)3)12-10(18(20)21)5-9(13(14,15)16)6-11(12)19(22)23/h5-6H,2,4,7H2,1,3H3

> <InChI Key_QSARr>
PTFJIKYUEPWBMS-UHFFFAOYSA-N

> <LogKOC>
3.6

$$$$
100687
  -INDIGO-08031722282D

 38 37  0  0  0  0  0  0  0  0999 V2000
    8.3138   -1.5999    0.0000 C   0  0  0  0  0  0  0  0  0  0  0  0
    9.6995   -2.4000    0.0000 H   0  0  0  0  0  0  0  0  0  0  0  0
    8.3138   -3.2000    0.0000 H   0  0  0  0  0  0  0  0  0  0  0  0
    9.6995   -0.8000    0.0000 H   0  0  0  0  0  0  0  0  0  0  0  0
    6.9283   -0.8000    0.0000 C   0  0  0  0  0  0  0  0  0  0  0  0
    5.9542   -2.0694    0.0000 H   0  0  0  0  0  0  0  0  0  0  0  0
    5.3418   -1.0089    0.0000 H   0  0  0  0  0  0  0  0  0  0  0  0
    6.9283    0.8000    0.0000 O   0  0  0  0  0  0  0  0  0  0  0  0
    5.5426    1.6001    0.0000 P   0  0  0  0  0  0  0  0  0  0  0  0
    5.5426    3.2000    0.0000 S   0  0  0  0  0  0  0  0  0  0  0  0
    6.9283    2.4000    0.0000 O   0  0  0  0  0  0  0  0  0  0  0  0
    6.9283    4.0000    0.0000 C   0  0  0  0  0  0  0  0  0  0  0  0
    5.3418    4.2089    0.0000 H   0  0  0  0  0  0  0  0  0  0  0  0
    5.9542    5.2694    0.0000 H   0  0  0  0  0  0  0  0  0  0  0  0
    8.3138    4.8001    0.0000 C   0  0  0  0  0  0  0  0  0  0  0  0
    9.6995    5.6000    0.0000 H   0  0  0  0  0  0  0  0  0  0  0  0
    8.3138    6.4000    0.0000 H   0  0  0  0  0  0  0  0  0  0  0  0
    9.6995    4.0000    0.0000 H   0  0  0  0  0  0  0  0  0  0  0  0
    4.1569    0.8000    0.0000 S   0  0  0  0  0  0  0  0  0  0  0  0
    2.7713    1.6001    0.0000 C   0  0  0  0  0  0  0  0  0  0  0  0
    2.1590    3.0783    0.0000 H   0  0  0  0  0  0  0  0  0  0  0  0
    3.3835    3.0783    0.0000 H   0  0  0  0  0  0  0  0  0  0  0  0
    1.3856    0.8000    0.0000 S   0  0  0  0  0  0  0  0  0  0  0  0
   -0.0001    0.0000    0.0000 C   0  0  0  0  0  0  0  0  0  0  0  0
   -1.3856   -0.8000    0.0000 C   0  0  0  0  0  0  0  0  0  0  0  0
   -2.7713   -1.5999    0.0000 H   0  0  0  0  0  0  0  0  0  0  0  0
   -2.7713    0.0000    0.0000 H   0  0  0  0  0  0  0  0  0  0  0  0
   -1.3856   -2.4000    0.0000 H   0  0  0  0  0  0  0  0  0  0  0  0
   -0.8000    1.3856    0.0000 C   0  0  0  0  0  0  0  0  0  0  0  0
   -1.6000    2.7712    0.0000 H   0  0  0  0  0  0  0  0  0  0  0  0
   -2.4000    1.3856    0.0000 H   0  0  0  0  0  0  0  0  0  0  0  0
   -0.2528    2.8892    0.0000 H   0  0  0  0  0  0  0  0  0  0  0  0
    0.7999   -1.3856    0.0000 C   0  0  0  0  0  0  0  0  0  0  0  0
    1.5999   -2.7712    0.0000 H   0  0  0  0  0  0  0  0  0  0  0  0
   -0.0001   -2.7712    0.0000 H   0  0  0  0  0  0  0  0  0  0  0  0
    2.3757   -1.6635    0.0000 H   0  0  0  0  0  0  0  0  0  0  0  0
    2.1856   -0.5857    0.0000 O   0  0  0  0  0  0  0  0  0  0  0  0
    0.5857    2.1856    0.0000 O   0  0  0  0  0  0  0  0  0  0  0  0
  1  2  1  0  0  0  0
  1  3  1  0  0  0  0
  1  4  1  0  0  0  0
  1  5  1  0  0  0  0
  5  6  1  0  0  0  0
  5  7  1  0  0  0  0
  5  8  1  0  0  0  0
  8  9  1  0  0  0  0
  9 10  2  0  0  0  0
  9 11  1  0  0  0  0
 11 12  1  0  0  0  0
 12 13  1  0  0  0  0
 12 14  1  0  0  0  0
 12 15  1  0  0  0  0
 15 16  1  0  0  0  0
 15 17  1  0  0  0  0
 15 18  1  0  0  0  0
  9 19  1  0  0  0  0
 19 20  1  0  0  0  0
 20 21  1  0  0  0  0
 20 22  1  0  0  0  0
 20 23  1  0  0  0  0
 23 24  1  0  0  0  0
 24 25  1  0  0  0  0
 25 26  1  0  0  0  0
 25 27  1  0  0  0  0
 25 28  1  0  0  0  0
 24 29  1  0  0  0  0
 29 30  1  0  0  0  0
 29 31  1  0  0  0  0
 29 32  1  0  0  0  0
 24 33  1  0  0  0  0
 33 34  1  0  0  0  0
 33 35  1  0  0  0  0
 33 36  1  0  0  0  0
 23 37  2  0  0  0  0
 23 38  2  0  0  0  0
M  END
> <ChemID>
100687

> <source_casrn>
56070-16-7

> <CAS>
56070-16-7

> <SMILES>
CCOP(=S)(OCC)SCS(=O)(=O)C(C)(C)C

> <NAME>
TERBUFOS SULFONE

> <preferred_name>
Terbufos sulfone

> <iupac>
S-[(tert-butylsulfonyl)methyl] O,O-diethyl phosphorodithioate

> <MPID>
99938

> <dsstox_substance_id>
DTXSID1042443

> <Canonical_QSARr>
CC(C)(C)S(=O)(=O)CSP(=S)(OCC)OCC

> <InChI_Code_QSARr>
InChI=1S/C9H21O4PS3/c1-6-12-14(15,13-7-2)16-8-17(10,11)9(3,4)5/h6-8H2,1-5H3

> <InChI Key_QSARr>
DWZSTEUTHNUVQD-UHFFFAOYSA-N

> <LogKOC>
2.18

$$$$
100691
  -INDIGO-08031722282D

 24 23  0  0  0  0  0  0  0  0999 V2000
   -6.9282    0.8000    0.0000 C   0  0  0  0  0  0  0  0  0  0  0  0
   -5.5425   -0.0000    0.0000 C   0  0  0  0  0  0  0  0  0  0  0  0
   -4.1570    0.8000    0.0000 N   0  0  0  0  0  0  0  0  0  0  0  0
   -4.1570    2.4000    0.0000 H   0  0  0  0  0  0  0  0  0  0  0  0
   -2.7713   -0.0000    0.0000 C   0  0  0  0  0  0  0  0  0  0  0  0
   -1.3856    0.8000    0.0000 N   0  0  0  0  0  0  0  0  0  0  0  0
   -1.3856    2.4000    0.0000 H   0  0  0  0  0  0  0  0  0  0  0  0
    0.0001   -0.0000    0.0000 C   0  0  0  0  0  0  0  0  0  0  0  0
   -0.6123   -1.4782    0.0000 H   0  0  0  0  0  0  0  0  0  0  0  0
    0.6123   -1.4782    0.0000 H   0  0  0  0  0  0  0  0  0  0  0  0
    1.3856    0.8000    0.0000 C   0  0  0  0  0  0  0  0  0  0  0  0
    2.7713    1.6000    0.0000 H   0  0  0  0  0  0  0  0  0  0  0  0
    2.7713   -0.0000    0.0000 H   0  0  0  0  0  0  0  0  0  0  0  0
    1.3856    2.4000    0.0000 H   0  0  0  0  0  0  0  0  0  0  0  0
   -2.7713   -1.6000    0.0000 O   0  0  0  0  0  0  0  0  0  0  0  0
   -5.5425   -1.6000    0.0000 O   0  0  0  0  0  0  0  0  0  0  0  0
   -8.3139   -0.0000    0.0000 N   0  0  0  0  0  0  0  0  0  0  0  0
   -9.6996    0.8000    0.0000 O   0  0  0  0  0  0  0  0  0  0  0  0
  -11.0851   -0.0000    0.0000 C   0  0  0  0  0  0  0  0  0  0  0  0
  -12.4708   -0.8000    0.0000 H   0  0  0  0  0  0  0  0  0  0  0  0
  -12.4708    0.8000    0.0000 H   0  0  0  0  0  0  0  0  0  0  0  0
  -11.0851   -1.6000    0.0000 H   0  0  0  0  0  0  0  0  0  0  0  0
   -6.9282    2.4000    0.0000 C   0  0  0  0  0  0  0  0  0  0  0  0
   -6.9282    4.0000    0.0000 N   0  0  0  0  0  0  0  0  0  0  0  0
  1  2  1  0  0  0  0
  2  3  1  0  0  0  0
  3  4  1  0  0  0  0
  3  5  1  0  0  0  0
  5  6  1  0  0  0  0
  6  7  1  0  0  0  0
  6  8  1  0  0  0  0
  8  9  1  0  0  0  0
  8 10  1  0  0  0  0
  8 11  1  0  0  0  0
 11 12  1  0  0  0  0
 11 13  1  0  0  0  0
 11 14  1  0  0  0  0
  5 15  2  0  0  0  0
  2 16  2  0  0  0  0
  1 17  2  0  0  0  0
 17 18  1  0  0  0  0
 18 19  1  0  0  0  0
 19 20  1  0  0  0  0
 19 21  1  0  0  0  0
 19 22  1  0  0  0  0
  1 23  1  0  0  0  0
 23 24  3  0  0  0  0
M  END
> <ChemID>
100691

> <source_casrn>
57966-95-7

> <CAS>
57966-95-7

> <SMILES>
CCNC(=O)NC(=O)/C(/C#N)=N/OC

> <NAME>
Cymoxanil

> <preferred_name>
Cymoxanil

> <iupac>
(2E)-2-cyano-N-(ethylcarbamoyl)-2-(methoxyimino)acetamide

> <MPID>
99942

> <dsstox_substance_id>
DTXSID6032358

> <Canonical_QSARr>
CCNC(=O)NC(=O)C(C#N)=NOC

> <InChI_Code_QSARr>
InChI=1S/C7H10N4O3/c1-3-9-7(13)10-6(12)5(4-8)11-14-2/h3H2,1-2H3,(H2,9,10,12,13)/b11-5+

> <InChI Key_QSARr>
XERJKGMBORTKEO-VZUCSPMQSA-N

> <LogKOC>
2.09

$$$$
100695
  -INDIGO-08031722282D

 38 40  0  0  0  0  0  0  0  0999 V2000
   -1.3856    2.3999    0.0000 N   0  0  0  0  0  0  0  0  0  0  0  0
   -0.0001    1.6000    0.0000 C   0  0  0  0  0  0  0  0  0  0  0  0
    1.3856    2.3999    0.0000 H   0  0  0  0  0  0  0  0  0  0  0  0
   -0.0001    0.0000    0.0000 C   0  0  0  0  0  0  0  0  0  0  0  0
    1.3856   -0.8000    0.0000 C   0  0  0  0  0  0  0  0  0  0  0  0
    2.7713    0.0000    0.0000 C   0  0  0  0  0  0  0  0  0  0  0  0
    2.7713    1.6000    0.0000 H   0  0  0  0  0  0  0  0  0  0  0  0
    4.1570   -0.8000    0.0000 C   0  0  0  0  0  0  0  0  0  0  0  0
    5.5425    0.0000    0.0000 C   0  0  0  0  0  0  0  0  0  0  0  0
    6.9282    0.8000    0.0000 F   0  0  0  0  0  0  0  0  0  0  0  0
    6.9282   -0.8000    0.0000 F   0  0  0  0  0  0  0  0  0  0  0  0
    5.5425    1.6000    0.0000 F   0  0  0  0  0  0  0  0  0  0  0  0
    4.1570   -2.4001    0.0000 C   0  0  0  0  0  0  0  0  0  0  0  0
    5.5425   -3.2000    0.0000 H   0  0  0  0  0  0  0  0  0  0  0  0
    2.7713   -3.2000    0.0000 C   0  0  0  0  0  0  0  0  0  0  0  0
    2.7713   -4.8000    0.0000 H   0  0  0  0  0  0  0  0  0  0  0  0
    1.3856   -2.4001    0.0000 C   0  0  0  0  0  0  0  0  0  0  0  0
   -0.0001   -3.2000    0.0000 H   0  0  0  0  0  0  0  0  0  0  0  0
   -1.3856   -0.8000    0.0000 C   0  0  0  0  0  0  0  0  0  0  0  0
   -1.3856   -2.4001    0.0000 O   0  0  0  0  0  0  0  0  0  0  0  0
   -2.7713    0.0000    0.0000 C   0  0  0  0  0  0  0  0  0  0  0  0
   -4.1570   -0.8000    0.0000 C   0  0  0  0  0  0  0  0  0  0  0  0
   -4.1570   -2.4001    0.0000 C   0  0  0  0  0  0  0  0  0  0  0  0
   -2.7713   -3.2000    0.0000 H   0  0  0  0  0  0  0  0  0  0  0  0
   -5.5427   -3.2000    0.0000 C   0  0  0  0  0  0  0  0  0  0  0  0
   -5.5427   -4.8000    0.0000 H   0  0  0  0  0  0  0  0  0  0  0  0
   -6.9281   -2.4001    0.0000 C   0  0  0  0  0  0  0  0  0  0  0  0
   -8.3138   -3.2000    0.0000 H   0  0  0  0  0  0  0  0  0  0  0  0
   -6.9281   -0.8000    0.0000 C   0  0  0  0  0  0  0  0  0  0  0  0
   -8.3138    0.0000    0.0000 H   0  0  0  0  0  0  0  0  0  0  0  0
   -5.5427    0.0000    0.0000 C   0  0  0  0  0  0  0  0  0  0  0  0
   -5.5427    1.6000    0.0000 H   0  0  0  0  0  0  0  0  0  0  0  0
   -2.7713    1.6000    0.0000 C   0  0  0  0  0  0  0  0  0  0  0  0
   -4.1570    2.3999    0.0000 H   0  0  0  0  0  0  0  0  0  0  0  0
   -1.3856    4.0000    0.0000 C   0  0  0  0  0  0  0  0  0  0  0  0
   -1.3856    5.6000    0.0000 H   0  0  0  0  0  0  0  0  0  0  0  0
   -2.7713    4.8000    0.0000 H   0  0  0  0  0  0  0  0  0  0  0  0
   -0.0001    4.8000    0.0000 H   0  0  0  0  0  0  0  0  0  0  0  0
  1  2  1  0  0  0  0
  2  3  1  0  0  0  0
  2  4  2  0  0  0  0
  4  5  1  0  0  0  0
  5  6  1  0  0  0  0
  6  7  1  0  0  0  0
  6  8  2  0  0  0  0
  8  9  1  0  0  0  0
  9 10  1  0  0  0  0
  9 11  1  0  0  0  0
  9 12  1  0  0  0  0
  8 13  1  0  0  0  0
 13 14  1  0  0  0  0
 13 15  2  0  0  0  0
 15 16  1  0  0  0  0
 15 17  1  0  0  0  0
 17  5  2  0  0  0  0
 17 18  1  0  0  0  0
  4 19  1  0  0  0  0
 19 20  2  0  0  0  0
 19 21  1  0  0  0  0
 21 22  1  0  0  0  0
 22 23  1  0  0  0  0
 23 24  1  0  0  0  0
 23 25  2  0  0  0  0
 25 26  1  0  0  0  0
 25 27  1  0  0  0  0
 27 28  1  0  0  0  0
 27 29  2  0  0  0  0
 29 30  1  0  0  0  0
 29 31  1  0  0  0  0
 31 22  2  0  0  0  0
 31 32  1  0  0  0  0
 21 33  2  0  0  0  0
 33  1  1  0  0  0  0
 33 34  1  0  0  0  0
  1 35  1  0  0  0  0
 35 36  1  0  0  0  0
 35 37  1  0  0  0  0
 35 38  1  0  0  0  0
M  END
> <ChemID>
100695

> <source_casrn>
59756-60-4

> <CAS>
59756-60-4

> <SMILES>
CN1C=C(C(=O)C(=C1)c1ccccc1)c1cc(ccc1)C(F)(F)F

> <NAME>
FLURIDONE

> <preferred_name>
Fluridone

> <iupac>
1-methyl-3-phenyl-5-[3-(trifluoromethyl)phenyl]pyridin-4(1H)-one

> <MPID>
99946

> <dsstox_substance_id>
DTXSID8024107

> <Canonical_QSARr>
CN1C=C(C(=O)C(=C1)c1ccccc1)c1cc(ccc1)C(F)(F)F

> <InChI_Code_QSARr>
InChI=1S/C19H14F3NO/c1-23-11-16(13-6-3-2-4-7-13)18(24)17(12-23)14-8-5-9-15(10-14)19(20,21)22/h2-12H,1H3

> <InChI Key_QSARr>
YWBVHLJPRPCRSD-UHFFFAOYSA-N

> <LogKOC>
2.85

$$$$
100698
  -INDIGO-08031722282D

 31 32  0  0  0  0  0  0  0  0999 V2000
   10.2696    2.4335    0.0000 O   0  0  0  0  0  0  0  0  0  0  0  0
   11.6553    3.2335    0.0000 H   0  0  0  0  0  0  0  0  0  0  0  0
   10.2696    0.8335    0.0000 C   0  0  0  0  0  0  0  0  0  0  0  0
    8.8840    0.0336    0.0000 C   0  0  0  0  0  0  0  0  0  0  0  0
    8.8840   -1.5665    0.0000 C   0  0  0  0  0  0  0  0  0  0  0  0
   10.2696   -2.3665    0.0000 N   0  0  0  0  0  0  0  0  0  0  0  0
   10.2696   -3.9665    0.0000 O   0  0  0  0  0  0  0  0  0  0  0  0
   11.6553   -1.5665    0.0000 O   0  0  0  0  0  0  0  0  0  0  0  0
    7.4983   -2.3665    0.0000 C   0  0  0  0  0  0  0  0  0  0  0  0
    7.4983   -3.9665    0.0000 H   0  0  0  0  0  0  0  0  0  0  0  0
    6.1126   -1.5665    0.0000 C   0  0  0  0  0  0  0  0  0  0  0  0
    4.7270   -2.3665    0.0000 H   0  0  0  0  0  0  0  0  0  0  0  0
    6.1126    0.0336    0.0000 C   0  0  0  0  0  0  0  0  0  0  0  0
    4.7270    0.8335    0.0000 O   0  0  0  0  0  0  0  0  0  0  0  0
    3.1513    0.5557    0.0000 C   0  0  0  0  0  0  0  0  0  0  0  0
    2.6041   -0.9478    0.0000 C   0  0  0  0  0  0  0  0  0  0  0  0
    3.6325   -2.1735    0.0000 Cl  0  0  0  0  0  0  0  0  0  0  0  0
    1.0284   -1.2256    0.0000 C   0  0  0  0  0  0  0  0  0  0  0  0
    0.4812   -2.7292    0.0000 H   0  0  0  0  0  0  0  0  0  0  0  0
   -0.0000    0.0000    0.0000 C   0  0  0  0  0  0  0  0  0  0  0  0
   -1.5757   -0.2778    0.0000 C   0  0  0  0  0  0  0  0  0  0  0  0
   -3.1514   -0.5556    0.0000 F   0  0  0  0  0  0  0  0  0  0  0  0
   -2.6042    0.9478    0.0000 F   0  0  0  0  0  0  0  0  0  0  0  0
   -2.1229   -1.7813    0.0000 F   0  0  0  0  0  0  0  0  0  0  0  0
    0.5472    1.5035    0.0000 C   0  0  0  0  0  0  0  0  0  0  0  0
   -0.4813    2.7292    0.0000 H   0  0  0  0  0  0  0  0  0  0  0  0
    2.1228    1.7814    0.0000 C   0  0  0  0  0  0  0  0  0  0  0  0
    2.6701    3.2849    0.0000 H   0  0  0  0  0  0  0  0  0  0  0  0
    7.4983    0.8335    0.0000 C   0  0  0  0  0  0  0  0  0  0  0  0
    7.4983    2.4335    0.0000 H   0  0  0  0  0  0  0  0  0  0  0  0
   11.6553    0.0336    0.0000 O   0  0  0  0  0  0  0  0  0  0  0  0
  1  2  1  0  0  0  0
  1  3  1  0  0  0  0
  3  4  1  0  0  0  0
  4  5  1  0  0  0  0
  5  6  1  0  0  0  0
  6  7  1  0  0  0  0
  6  8  2  0  0  0  0
  5  9  2  0  0  0  0
  9 10  1  0  0  0  0
  9 11  1  0  0  0  0
 11 12  1  0  0  0  0
 11 13  2  0  0  0  0
 13 14  1  0  0  0  0
 14 15  1  0  0  0  0
 15 16  1  0  0  0  0
 16 17  1  0  0  0  0
 16 18  2  0  0  0  0
 18 19  1  0  0  0  0
 18 20  1  0  0  0  0
 20 21  1  0  0  0  0
 21 22  1  0  0  0  0
 21 23  1  0  0  0  0
 21 24  1  0  0  0  0
 20 25  2  0  0  0  0
 25 26  1  0  0  0  0
 25 27  1  0  0  0  0
 27 15  2  0  0  0  0
 27 28  1  0  0  0  0
 13 29  1  0  0  0  0
 29  4  2  0  0  0  0
 29 30  1  0  0  0  0
  3 31  2  0  0  0  0
M  CHG  2   6   1   7  -1
M  END
> <ChemID>
100698

> <source_casrn>
62476-59-9

> <CAS>
62476-59-9

> <SMILES>
[Na+].[O-]C(=O)c1cc(ccc1[N+]([O-])=O)Oc1ccc(cc1Cl)C(F)(F)F

> <NAME>
ACIFLUORFEN-SODIUM

> <preferred_name>
Acifluorfen-sodium

> <iupac>
sodium 5-[2-chloro-4-(trifluoromethyl)phenoxy]-2-nitrobenzoate

> <MPID>
99949

> <dsstox_substance_id>
DTXSID7023853

> <Canonical_QSARr>
[O-][N+](=O)c1ccc(cc1C(O)=O)Oc1ccc(cc1Cl)C(F)(F)F

> <InChI_Code_QSARr>
InChI=1S/C14H7ClF3NO5/c15-10-5-7(14(16,17)18)1-4-12(10)24-8-2-3-11(19(22)23)9(6-8)13(20)21/h1-6H,(H,20,21)

> <InChI Key_QSARr>
NUFNQYOELLVIPL-UHFFFAOYSA-N

> <LogKOC>
2.05

$$$$
100700
  -INDIGO-08031722282D

 32 32  0  0  0  0  0  0  0  0999 V2000
   -4.1568    0.8000    0.0000 O   0  0  0  0  0  0  0  0  0  0  0  0
   -2.7712   -0.0000    0.0000 C   0  0  0  0  0  0  0  0  0  0  0  0
   -3.3834   -1.4782    0.0000 H   0  0  0  0  0  0  0  0  0  0  0  0
   -2.1590   -1.4782    0.0000 H   0  0  0  0  0  0  0  0  0  0  0  0
   -1.3856    0.8000    0.0000 C   0  0  0  0  0  0  0  0  0  0  0  0
   -0.7734    2.2782    0.0000 H   0  0  0  0  0  0  0  0  0  0  0  0
   -1.9979    2.2782    0.0000 H   0  0  0  0  0  0  0  0  0  0  0  0
   -0.0001   -0.0000    0.0000 C   0  0  0  0  0  0  0  0  0  0  0  0
   -0.6123   -1.4782    0.0000 H   0  0  0  0  0  0  0  0  0  0  0  0
    0.6122   -1.4782    0.0000 H   0  0  0  0  0  0  0  0  0  0  0  0
    1.3858    0.8000    0.0000 C   0  0  0  0  0  0  0  0  0  0  0  0
    1.9980    2.2782    0.0000 H   0  0  0  0  0  0  0  0  0  0  0  0
    0.7733    2.2782    0.0000 H   0  0  0  0  0  0  0  0  0  0  0  0
    2.7713   -0.0000    0.0000 C   0  0  0  0  0  0  0  0  0  0  0  0
    4.1569   -0.8000    0.0000 H   0  0  0  0  0  0  0  0  0  0  0  0
    4.1569    0.8000    0.0000 H   0  0  0  0  0  0  0  0  0  0  0  0
    2.7713   -1.6000    0.0000 H   0  0  0  0  0  0  0  0  0  0  0  0
   -5.5426   -0.0000    0.0000 C   0  0  0  0  0  0  0  0  0  0  0  0
   -5.5426   -1.6000    0.0000 O   0  0  0  0  0  0  0  0  0  0  0  0
   -6.9282    0.8000    0.0000 N   0  0  0  0  0  0  0  0  0  0  0  0
   -6.9282    2.4000    0.0000 H   0  0  0  0  0  0  0  0  0  0  0  0
   -8.3138   -0.0000    0.0000 C   0  0  0  0  0  0  0  0  0  0  0  0
   -8.3138   -1.6000    0.0000 C   0  0  0  0  0  0  0  0  0  0  0  0
   -6.9282   -2.4000    0.0000 H   0  0  0  0  0  0  0  0  0  0  0  0
   -9.6996   -2.4000    0.0000 C   0  0  0  0  0  0  0  0  0  0  0  0
   -9.6996   -4.0000    0.0000 H   0  0  0  0  0  0  0  0  0  0  0  0
  -11.0852   -1.6000    0.0000 C   0  0  0  0  0  0  0  0  0  0  0  0
  -12.4708   -2.4000    0.0000 H   0  0  0  0  0  0  0  0  0  0  0  0
  -11.0852   -0.0000    0.0000 C   0  0  0  0  0  0  0  0  0  0  0  0
  -12.4708    0.8000    0.0000 H   0  0  0  0  0  0  0  0  0  0  0  0
   -9.6996    0.8000    0.0000 C   0  0  0  0  0  0  0  0  0  0  0  0
   -9.6996    2.4000    0.0000 H   0  0  0  0  0  0  0  0  0  0  0  0
  1  2  1  0  0  0  0
  2  3  1  0  0  0  0
  2  4  1  0  0  0  0
  2  5  1  0  0  0  0
  5  6  1  0  0  0  0
  5  7  1  0  0  0  0
  5  8  1  0  0  0  0
  8  9  1  0  0  0  0
  8 10  1  0  0  0  0
  8 11  1  0  0  0  0
 11 12  1  0  0  0  0
 11 13  1  0  0  0  0
 11 14  1  0  0  0  0
 14 15  1  0  0  0  0
 14 16  1  0  0  0  0
 14 17  1  0  0  0  0
  1 18  1  0  0  0  0
 18 19  2  0  0  0  0
 18 20  1  0  0  0  0
 20 21  1  0  0  0  0
 20 22  1  0  0  0  0
 22 23  1  0  0  0  0
 23 24  1  0  0  0  0
 23 25  2  0  0  0  0
 25 26  1  0  0  0  0
 25 27  1  0  0  0  0
 27 28  1  0  0  0  0
 27 29  2  0  0  0  0
 29 30  1  0  0  0  0
 29 31  1  0  0  0  0
 31 22  2  0  0  0  0
 31 32  1  0  0  0  0
M  END
> <ChemID>
100700

> <source_casrn>
63075-06-9

> <CAS>
63075-06-9

> <SMILES>
CCCCCOC(=O)Nc1ccccc1

> <NAME>
N-PENTYL N-PHENYLCARBAMATE

> <preferred_name>
N-Pentyl N-phenylcarbamate

> <iupac>
pentyl N-phenylcarbamate

> <MPID>
99951

> <dsstox_substance_id>
DTXSID40212403

> <Canonical_QSARr>
CCCCCOC(=O)Nc1ccccc1

> <InChI_Code_QSARr>
InChI=1S/C12H17NO2/c1-2-3-7-10-15-12(14)13-11-8-5-4-6-9-11/h4-6,8-9H,2-3,7,10H2,1H3,(H,13,14)

> <InChI Key_QSARr>
BIYXGLPPMRDUNY-UHFFFAOYSA-N

> <LogKOC>
2.61

$$$$
100705
  -INDIGO-08031722282D

 22 23  0  0  0  0  0  0  0  0999 V2000
   -2.7292    0.4812    0.0000 C   0  0  0  0  0  0  0  0  0  0  0  0
   -2.4513    2.0570    0.0000 N   0  0  0  0  0  0  0  0  0  0  0  0
   -3.6770    3.0854    0.0000 C   0  0  0  0  0  0  0  0  0  0  0  0
   -3.3992    4.6611    0.0000 N   0  0  0  0  0  0  0  0  0  0  0  0
   -4.6249    5.6895    0.0000 H   0  0  0  0  0  0  0  0  0  0  0  0
   -1.8957    5.2083    0.0000 H   0  0  0  0  0  0  0  0  0  0  0  0
   -5.1806    2.5381    0.0000 N   0  0  0  0  0  0  0  0  0  0  0  0
   -5.4583    0.9625    0.0000 C   0  0  0  0  0  0  0  0  0  0  0  0
   -6.9619    0.4152    0.0000 N   0  0  0  0  0  0  0  0  0  0  0  0
   -8.1875    1.4436    0.0000 H   0  0  0  0  0  0  0  0  0  0  0  0
   -7.2398   -1.1605    0.0000 H   0  0  0  0  0  0  0  0  0  0  0  0
   -4.2326   -0.0660    0.0000 N   0  0  0  0  0  0  0  0  0  0  0  0
   -1.5035   -0.5472    0.0000 N   0  0  0  0  0  0  0  0  0  0  0  0
   -1.7813   -2.1229    0.0000 H   0  0  0  0  0  0  0  0  0  0  0  0
    0.0000   -0.0000    0.0000 C   0  0  0  0  0  0  0  0  0  0  0  0
   -0.2779    1.5757    0.0000 H   0  0  0  0  0  0  0  0  0  0  0  0
    0.8000   -1.3857    0.0000 C   0  0  0  0  0  0  0  0  0  0  0  0
   -0.4257   -2.4141    0.0000 H   0  0  0  0  0  0  0  0  0  0  0  0
    2.0257   -2.4141    0.0000 H   0  0  0  0  0  0  0  0  0  0  0  0
    1.5999   -0.0000    0.0000 C   0  0  0  0  0  0  0  0  0  0  0  0
    3.1035   -0.5472    0.0000 H   0  0  0  0  0  0  0  0  0  0  0  0
    1.8778    1.5757    0.0000 H   0  0  0  0  0  0  0  0  0  0  0  0
  1  2  1  0  0  0  0
  2  3  2  0  0  0  0
  3  4  1  0  0  0  0
  4  5  1  0  0  0  0
  4  6  1  0  0  0  0
  3  7  1  0  0  0  0
  7  8  2  0  0  0  0
  8  9  1  0  0  0  0
  9 10  1  0  0  0  0
  9 11  1  0  0  0  0
  8 12  1  0  0  0  0
 12  1  2  0  0  0  0
  1 13  1  0  0  0  0
 13 14  1  0  0  0  0
 13 15  1  0  0  0  0
 15 16  1  0  0  0  0
 15 17  1  0  0  0  0
 17 18  1  0  0  0  0
 17 19  1  0  0  0  0
 17 20  1  0  0  0  0
 20 15  1  0  0  0  0
 20 21  1  0  0  0  0
 20 22  1  0  0  0  0
M  END
> <ChemID>
100705

> <source_casrn>
66215-27-8

> <CAS>
66215-27-8

> <SMILES>
Nc1[n]c(NC2CC2)[n]c(N)[n]1

> <NAME>
Cyromazine

> <preferred_name>
Cyromazine

> <iupac>
N~2~-cyclopropyl-1,3,5-triazine-2,4,6-triamine

> <MPID>
99954

> <dsstox_substance_id>
DTXSID6023999

> <Canonical_QSARr>
Nc1[n]c(NC2CC2)[n]c(N)[n]1

> <InChI_Code_QSARr>
InChI=1S/C6H10N6/c7-4-10-5(8)12-6(11-4)9-3-1-2-3/h3H,1-2H2,(H5,7,8,9,10,11,12)

> <InChI Key_QSARr>
LVQDKIWDGQRHTE-UHFFFAOYSA-N

> <LogKOC>
2.3

$$$$
100710
  -INDIGO-08031722282D

 39 40  0  0  0  0  0  0  0  0999 V2000
   -1.2257   -2.6284    0.0000 N   0  0  0  0  0  0  0  0  0  0  0  0
    0.0000   -1.5999    0.0000 C   0  0  0  0  0  0  0  0  0  0  0  0
    0.0000   -0.0001    0.0000 N   0  0  0  0  0  0  0  0  0  0  0  0
    1.3856    0.7999    0.0000 C   0  0  0  0  0  0  0  0  0  0  0  0
    0.7734    2.2781    0.0000 H   0  0  0  0  0  0  0  0  0  0  0  0
    1.9980    2.2781    0.0000 H   0  0  0  0  0  0  0  0  0  0  0  0
    2.7714   -0.0001    0.0000 C   0  0  0  0  0  0  0  0  0  0  0  0
    3.3836   -1.4781    0.0000 H   0  0  0  0  0  0  0  0  0  0  0  0
    2.1589   -1.4781    0.0000 H   0  0  0  0  0  0  0  0  0  0  0  0
    4.1570    0.7999    0.0000 O   0  0  0  0  0  0  0  0  0  0  0  0
    5.5425   -0.0001    0.0000 C   0  0  0  0  0  0  0  0  0  0  0  0
    5.5425   -1.5999    0.0000 C   0  0  0  0  0  0  0  0  0  0  0  0
    4.1570   -2.3999    0.0000 Cl  0  0  0  0  0  0  0  0  0  0  0  0
    6.9281   -2.3999    0.0000 C   0  0  0  0  0  0  0  0  0  0  0  0
    6.9281   -3.9999    0.0000 H   0  0  0  0  0  0  0  0  0  0  0  0
    8.3139   -1.5999    0.0000 C   0  0  0  0  0  0  0  0  0  0  0  0
    9.6995   -2.3999    0.0000 Cl  0  0  0  0  0  0  0  0  0  0  0  0
    8.3139   -0.0001    0.0000 C   0  0  0  0  0  0  0  0  0  0  0  0
    9.6995    0.7999    0.0000 H   0  0  0  0  0  0  0  0  0  0  0  0
    6.9281    0.7999    0.0000 C   0  0  0  0  0  0  0  0  0  0  0  0
    6.9281    2.3999    0.0000 Cl  0  0  0  0  0  0  0  0  0  0  0  0
   -1.3856    0.7999    0.0000 C   0  0  0  0  0  0  0  0  0  0  0  0
   -2.9720    0.5912    0.0000 H   0  0  0  0  0  0  0  0  0  0  0  0
   -2.3596   -0.4694    0.0000 H   0  0  0  0  0  0  0  0  0  0  0  0
   -1.6634    2.3757    0.0000 C   0  0  0  0  0  0  0  0  0  0  0  0
   -0.1375    2.8568    0.0000 H   0  0  0  0  0  0  0  0  0  0  0  0
   -0.9247    3.7949    0.0000 H   0  0  0  0  0  0  0  0  0  0  0  0
   -3.1669    2.9230    0.0000 C   0  0  0  0  0  0  0  0  0  0  0  0
   -4.6705    3.4701    0.0000 H   0  0  0  0  0  0  0  0  0  0  0  0
   -4.3927    1.8945    0.0000 H   0  0  0  0  0  0  0  0  0  0  0  0
   -3.4448    4.4986    0.0000 H   0  0  0  0  0  0  0  0  0  0  0  0
    1.3856   -2.3999    0.0000 O   0  0  0  0  0  0  0  0  0  0  0  0
   -2.7782   -2.2415    0.0000 C   0  0  0  0  0  0  0  0  0  0  0  0
   -3.3774   -0.7579    0.0000 H   0  0  0  0  0  0  0  0  0  0  0  0
   -3.6261   -3.5982    0.0000 N   0  0  0  0  0  0  0  0  0  0  0  0
   -2.5975   -4.8239    0.0000 C   0  0  0  0  0  0  0  0  0  0  0  0
   -2.9847   -6.3764    0.0000 H   0  0  0  0  0  0  0  0  0  0  0  0
   -1.1141   -4.2246    0.0000 C   0  0  0  0  0  0  0  0  0  0  0  0
    0.2427   -5.0724    0.0000 H   0  0  0  0  0  0  0  0  0  0  0  0
  1  2  1  0  0  0  0
  2  3  1  0  0  0  0
  3  4  1  0  0  0  0
  4  5  1  0  0  0  0
  4  6  1  0  0  0  0
  4  7  1  0  0  0  0
  7  8  1  0  0  0  0
  7  9  1  0  0  0  0
  7 10  1  0  0  0  0
 10 11  1  0  0  0  0
 11 12  1  0  0  0  0
 12 13  1  0  0  0  0
 12 14  2  0  0  0  0
 14 15  1  0  0  0  0
 14 16  1  0  0  0  0
 16 17  1  0  0  0  0
 16 18  2  0  0  0  0
 18 19  1  0  0  0  0
 18 20  1  0  0  0  0
 20 11  2  0  0  0  0
 20 21  1  0  0  0  0
  3 22  1  0  0  0  0
 22 23  1  0  0  0  0
 22 24  1  0  0  0  0
 22 25  1  0  0  0  0
 25 26  1  0  0  0  0
 25 27  1  0  0  0  0
 25 28  1  0  0  0  0
 28 29  1  0  0  0  0
 28 30  1  0  0  0  0
 28 31  1  0  0  0  0
  2 32  2  0  0  0  0
  1 33  1  0  0  0  0
 33 34  1  0  0  0  0
 33 35  2  0  0  0  0
 35 36  1  0  0  0  0
 36 37  1  0  0  0  0
 36 38  2  0  0  0  0
 38  1  1  0  0  0  0
 38 39  1  0  0  0  0
M  END
> <ChemID>
100710

> <source_casrn>
67747-09-5

> <CAS>
67747-09-5

> <SMILES>
CCCN(CCOc1c(Cl)cc(Cl)cc1Cl)C(=O)[n]1cc[n]c1

> <NAME>
PROCHLORAZ

> <preferred_name>
Prochloraz

> <iupac>
N-propyl-N-[2-(2,4,6-trichlorophenoxy)ethyl]-1H-imidazole-1-carboxamide

> <MPID>
99959

> <dsstox_substance_id>
DTXSID4024270

> <Canonical_QSARr>
CCCN(CCOc1c(Cl)cc(Cl)cc1Cl)C(=O)[n]1cc[n]c1

> <InChI_Code_QSARr>
InChI=1S/C15H16Cl3N3O2/c1-2-4-20(15(22)21-5-3-19-10-21)6-7-23-14-12(17)8-11(16)9-13(14)18/h3,5,8-10H,2,4,6-7H2,1H3

> <InChI Key_QSARr>
TVLSRXXIMLFWEO-UHFFFAOYSA-N

> <LogKOC>
2.7

$$$$
100714
  -INDIGO-08031722282D

 57 59  0  0  0  0  0  0  0  0999 V2000
   -6.2834   -0.8902    0.0000 C   0  0  0  0  0  0  0  0  0  0  0  0
   -4.7800   -1.4376    0.0000 C   0  0  0  0  0  0  0  0  0  0  0  0
   -5.0578    0.1382    0.0000 H   0  0  0  0  0  0  0  0  0  0  0  0
   -3.2763   -1.9847    0.0000 O   0  0  0  0  0  0  0  0  0  0  0  0
   -2.0507   -0.9563    0.0000 C   0  0  0  0  0  0  0  0  0  0  0  0
   -0.5473   -1.5035    0.0000 C   0  0  0  0  0  0  0  0  0  0  0  0
    0.9564   -2.0507    0.0000 H   0  0  0  0  0  0  0  0  0  0  0  0
   -1.0946   -3.0069    0.0000 N   0  0  0  0  0  0  0  0  0  0  0  0
   -2.6700   -3.2849    0.0000 H   0  0  0  0  0  0  0  0  0  0  0  0
   -0.2943   -4.3927    0.0000 C   0  0  0  0  0  0  0  0  0  0  0  0
   -1.0946   -5.7783    0.0000 C   0  0  0  0  0  0  0  0  0  0  0  0
   -2.6945   -5.7783    0.0000 Cl  0  0  0  0  0  0  0  0  0  0  0  0
   -0.2943   -7.1639    0.0000 C   0  0  0  0  0  0  0  0  0  0  0  0
   -1.0946   -8.5496    0.0000 H   0  0  0  0  0  0  0  0  0  0  0  0
    1.3056   -7.1639    0.0000 C   0  0  0  0  0  0  0  0  0  0  0  0
    2.1056   -8.5496    0.0000 C   0  0  0  0  0  0  0  0  0  0  0  0
    2.9056   -9.9352    0.0000 F   0  0  0  0  0  0  0  0  0  0  0  0
    1.3056   -9.9352    0.0000 F   0  0  0  0  0  0  0  0  0  0  0  0
    3.7055   -8.5496    0.0000 F   0  0  0  0  0  0  0  0  0  0  0  0
    2.1056   -5.7783    0.0000 C   0  0  0  0  0  0  0  0  0  0  0  0
    3.7055   -5.7783    0.0000 H   0  0  0  0  0  0  0  0  0  0  0  0
    1.3056   -4.3927    0.0000 C   0  0  0  0  0  0  0  0  0  0  0  0
    2.1056   -3.0069    0.0000 H   0  0  0  0  0  0  0  0  0  0  0  0
   -0.0000   -0.0001    0.0000 C   0  0  0  0  0  0  0  0  0  0  0  0
   -1.6000   -0.0001    0.0000 H   0  0  0  0  0  0  0  0  0  0  0  0
   -0.0000    1.6000    0.0000 C   0  0  0  0  0  0  0  0  0  0  0  0
   -0.0000    3.2000    0.0000 H   0  0  0  0  0  0  0  0  0  0  0  0
   -1.3858    2.4001    0.0000 H   0  0  0  0  0  0  0  0  0  0  0  0
    1.3857    2.4001    0.0000 H   0  0  0  0  0  0  0  0  0  0  0  0
    1.5999   -0.0001    0.0000 C   0  0  0  0  0  0  0  0  0  0  0  0
    2.3999   -1.3857    0.0000 H   0  0  0  0  0  0  0  0  0  0  0  0
    3.1999   -0.0001    0.0000 H   0  0  0  0  0  0  0  0  0  0  0  0
    2.3999    1.3857    0.0000 H   0  0  0  0  0  0  0  0  0  0  0  0
   -2.5980    0.5473    0.0000 O   0  0  0  0  0  0  0  0  0  0  0  0
   -5.5799   -2.8231    0.0000 C   0  0  0  0  0  0  0  0  0  0  0  0
   -6.3799   -4.2087    0.0000 N   0  0  0  0  0  0  0  0  0  0  0  0
   -7.5092   -1.9188    0.0000 C   0  0  0  0  0  0  0  0  0  0  0  0
   -7.2314   -3.4944    0.0000 H   0  0  0  0  0  0  0  0  0  0  0  0
   -9.0126   -1.3714    0.0000 C   0  0  0  0  0  0  0  0  0  0  0  0
  -10.2382   -2.4000    0.0000 O   0  0  0  0  0  0  0  0  0  0  0  0
  -11.8381   -2.4000    0.0000 C   0  0  0  0  0  0  0  0  0  0  0  0
  -12.6384   -1.0143    0.0000 C   0  0  0  0  0  0  0  0  0  0  0  0
  -11.8381    0.3713    0.0000 H   0  0  0  0  0  0  0  0  0  0  0  0
  -14.2384   -1.0143    0.0000 C   0  0  0  0  0  0  0  0  0  0  0  0
  -15.0383    0.3713    0.0000 H   0  0  0  0  0  0  0  0  0  0  0  0
  -15.0383   -2.4000    0.0000 C   0  0  0  0  0  0  0  0  0  0  0  0
  -16.6383   -2.4000    0.0000 H   0  0  0  0  0  0  0  0  0  0  0  0
  -14.2384   -3.7856    0.0000 C   0  0  0  0  0  0  0  0  0  0  0  0
  -15.0383   -5.1712    0.0000 H   0  0  0  0  0  0  0  0  0  0  0  0
  -12.6384   -3.7856    0.0000 C   0  0  0  0  0  0  0  0  0  0  0  0
  -11.8381   -5.1712    0.0000 H   0  0  0  0  0  0  0  0  0  0  0  0
   -9.2905    0.2042    0.0000 C   0  0  0  0  0  0  0  0  0  0  0  0
  -10.7939    0.7513    0.0000 H   0  0  0  0  0  0  0  0  0  0  0  0
   -8.0649    1.2326    0.0000 C   0  0  0  0  0  0  0  0  0  0  0  0
   -8.3427    2.8084    0.0000 H   0  0  0  0  0  0  0  0  0  0  0  0
   -6.5612    0.6854    0.0000 C   0  0  0  0  0  0  0  0  0  0  0  0
   -5.3356    1.7138    0.0000 H   0  0  0  0  0  0  0  0  0  0  0  0
  1  2  1  0  0  0  0
  2  3  1  0  0  0  0
  2  4  1  0  0  0  0
  4  5  1  0  0  0  0
  5  6  1  0  0  0  0
  6  7  1  0  0  0  0
  6  8  1  0  0  0  0
  8  9  1  0  0  0  0
  8 10  1  0  0  0  0
 10 11  1  0  0  0  0
 11 12  1  0  0  0  0
 11 13  2  0  0  0  0
 13 14  1  0  0  0  0
 13 15  1  0  0  0  0
 15 16  1  0  0  0  0
 16 17  1  0  0  0  0
 16 18  1  0  0  0  0
 16 19  1  0  0  0  0
 15 20  2  0  0  0  0
 20 21  1  0  0  0  0
 20 22  1  0  0  0  0
 22 10  2  0  0  0  0
 22 23  1  0  0  0  0
  6 24  1  0  0  0  0
 24 25  1  0  0  0  0
 24 26  1  0  0  0  0
 26 27  1  0  0  0  0
 26 28  1  0  0  0  0
 26 29  1  0  0  0  0
 24 30  1  0  0  0  0
 30 31  1  0  0  0  0
 30 32  1  0  0  0  0
 30 33  1  0  0  0  0
  5 34  2  0  0  0  0
  2 35  1  0  0  0  0
 35 36  3  0  0  0  0
  1 37  1  0  0  0  0
 37 38  1  0  0  0  0
 37 39  2  0  0  0  0
 39 40  1  0  0  0  0
 40 41  1  0  0  0  0
 41 42  1  0  0  0  0
 42 43  1  0  0  0  0
 42 44  2  0  0  0  0
 44 45  1  0  0  0  0
 44 46  1  0  0  0  0
 46 47  1  0  0  0  0
 46 48  2  0  0  0  0
 48 49  1  0  0  0  0
 48 50  1  0  0  0  0
 50 41  2  0  0  0  0
 50 51  1  0  0  0  0
 39 52  1  0  0  0  0
 52 53  1  0  0  0  0
 52 54  2  0  0  0  0
 54 55  1  0  0  0  0
 54 56  1  0  0  0  0
 56  1  2  0  0  0  0
 56 57  1  0  0  0  0
M  END
> <ChemID>
100714

> <source_casrn>
69409-94-5|102851-06-9

> <CAS>
69409-94-5|102851-06-9

> <SMILES>
CC(C)C(Nc1ccc(cc1Cl)C(F)(F)F)C(=O)OC(C#N)c1cccc(c1)Oc1ccccc1

> <NAME>
FLUVALINATE, tau-Fluvalinate

> <preferred_name>
Fluvalinate

> <iupac>
cyano(3-phenoxyphenyl)methyl N-[2-chloro-4-(trifluoromethyl)phenyl]valinate

> <MPID>
99963|100007

> <dsstox_substance_id>
DTXSID7024110|DTXSID7037555

> <Canonical_QSARr>
CC(C)C(Nc1ccc(cc1Cl)C(F)(F)F)C(=O)OC(C#N)c1cccc(c1)Oc1ccccc1

> <InChI_Code_QSARr>
InChI=1S/C26H22ClF3N2O3/c1-16(2)24(32-22-12-11-18(14-21(22)27)26(28,29)30)25(33)35-23(15-31)17-7-6-10-20(13-17)34-19-8-4-3-5-9-19/h3-14,16,23-24,32H,1-2H3

> <InChI Key_QSARr>
INISTDXBRIBGOC-UHFFFAOYSA-N

> <LogKOC>
5.705

$$$$
100719
  -INDIGO-08031722282D

 47 48  0  0  0  0  0  0  0  0999 V2000
    1.3856   -0.8000    0.0000 N   0  0  0  0  0  0  0  0  0  0  0  0
    2.6114    0.2284    0.0000 C   0  0  0  0  0  0  0  0  0  0  0  0
    4.1148   -0.3187    0.0000 C   0  0  0  0  0  0  0  0  0  0  0  0
    3.7686   -1.8809    0.0000 H   0  0  0  0  0  0  0  0  0  0  0  0
    4.9746   -1.6682    0.0000 H   0  0  0  0  0  0  0  0  0  0  0  0
    5.3404    0.7097    0.0000 C   0  0  0  0  0  0  0  0  0  0  0  0
    5.0626    2.2853    0.0000 C   0  0  0  0  0  0  0  0  0  0  0  0
    3.5593    2.8326    0.0000 H   0  0  0  0  0  0  0  0  0  0  0  0
    6.2882    3.3138    0.0000 C   0  0  0  0  0  0  0  0  0  0  0  0
    6.0105    4.8895    0.0000 H   0  0  0  0  0  0  0  0  0  0  0  0
    7.7918    2.7666    0.0000 C   0  0  0  0  0  0  0  0  0  0  0  0
    9.0174    3.7950    0.0000 H   0  0  0  0  0  0  0  0  0  0  0  0
    8.0696    1.1910    0.0000 C   0  0  0  0  0  0  0  0  0  0  0  0
    9.5732    0.6437    0.0000 H   0  0  0  0  0  0  0  0  0  0  0  0
    6.8440    0.1624    0.0000 C   0  0  0  0  0  0  0  0  0  0  0  0
    7.1217   -1.4132    0.0000 H   0  0  0  0  0  0  0  0  0  0  0  0
    2.3334    1.8042    0.0000 O   0  0  0  0  0  0  0  0  0  0  0  0
    1.3856   -2.4000    0.0000 C   0  0  0  0  0  0  0  0  0  0  0  0
    0.0000   -3.2000    0.0000 C   0  0  0  0  0  0  0  0  0  0  0  0
   -1.5036   -2.6527    0.0000 C   0  0  0  0  0  0  0  0  0  0  0  0
   -3.0069   -2.1056    0.0000 H   0  0  0  0  0  0  0  0  0  0  0  0
   -2.7292   -3.6812    0.0000 H   0  0  0  0  0  0  0  0  0  0  0  0
   -1.7813   -1.0771    0.0000 H   0  0  0  0  0  0  0  0  0  0  0  0
    0.0000   -4.8000    0.0000 C   0  0  0  0  0  0  0  0  0  0  0  0
   -1.3856   -5.6001    0.0000 H   0  0  0  0  0  0  0  0  0  0  0  0
    1.3856   -5.6001    0.0000 C   0  0  0  0  0  0  0  0  0  0  0  0
    1.3856   -7.2000    0.0000 H   0  0  0  0  0  0  0  0  0  0  0  0
    2.7714   -4.8000    0.0000 C   0  0  0  0  0  0  0  0  0  0  0  0
    3.9970   -5.8284    0.0000 H   0  0  0  0  0  0  0  0  0  0  0  0
    2.7714   -3.2000    0.0000 C   0  0  0  0  0  0  0  0  0  0  0  0
    4.3469   -3.4779    0.0000 C   0  0  0  0  0  0  0  0  0  0  0  0
    5.8505   -4.0250    0.0000 H   0  0  0  0  0  0  0  0  0  0  0  0
    4.6249   -5.0535    0.0000 H   0  0  0  0  0  0  0  0  0  0  0  0
    5.5727   -2.4494    0.0000 H   0  0  0  0  0  0  0  0  0  0  0  0
    0.0000    0.0000    0.0000 C   0  0  0  0  0  0  0  0  0  0  0  0
   -0.8000   -1.3856    0.0000 H   0  0  0  0  0  0  0  0  0  0  0  0
   -1.3856    0.7999    0.0000 C   0  0  0  0  0  0  0  0  0  0  0  0
   -2.7713    0.0000    0.0000 O   0  0  0  0  0  0  0  0  0  0  0  0
   -1.6635    2.3757    0.0000 O   0  0  0  0  0  0  0  0  0  0  0  0
   -3.1669    2.9228    0.0000 C   0  0  0  0  0  0  0  0  0  0  0  0
   -4.6705    3.4702    0.0000 H   0  0  0  0  0  0  0  0  0  0  0  0
   -3.4449    4.4986    0.0000 H   0  0  0  0  0  0  0  0  0  0  0  0
   -4.3927    1.8944    0.0000 H   0  0  0  0  0  0  0  0  0  0  0  0
    0.8001    1.3856    0.0000 C   0  0  0  0  0  0  0  0  0  0  0  0
    0.0000    2.7712    0.0000 H   0  0  0  0  0  0  0  0  0  0  0  0
    1.5999    2.7712    0.0000 H   0  0  0  0  0  0  0  0  0  0  0  0
   -0.7757    1.6634    0.0000 H   0  0  0  0  0  0  0  0  0  0  0  0
  1  2  1  0  0  0  0
  2  3  1  0  0  0  0
  3  4  1  0  0  0  0
  3  5  1  0  0  0  0
  3  6  1  0  0  0  0
  6  7  1  0  0  0  0
  7  8  1  0  0  0  0
  7  9  2  0  0  0  0
  9 10  1  0  0  0  0
  9 11  1  0  0  0  0
 11 12  1  0  0  0  0
 11 13  2  0  0  0  0
 13 14  1  0  0  0  0
 13 15  1  0  0  0  0
 15  6  2  0  0  0  0
 15 16  1  0  0  0  0
  2 17  2  0  0  0  0
  1 18  1  0  0  0  0
 18 19  1  0  0  0  0
 19 20  1  0  0  0  0
 20 21  1  0  0  0  0
 20 22  1  0  0  0  0
 20 23  1  0  0  0  0
 19 24  2  0  0  0  0
 24 25  1  0  0  0  0
 24 26  1  0  0  0  0
 26 27  1  0  0  0  0
 26 28  2  0  0  0  0
 28 29  1  0  0  0  0
 28 30  1  0  0  0  0
 30 18  2  0  0  0  0
 30 31  1  0  0  0  0
 31 32  1  0  0  0  0
 31 33  1  0  0  0  0
 31 34  1  0  0  0  0
  1 35  1  0  0  0  0
 35 36  1  0  0  0  0
 35 37  1  0  0  0  0
 37 38  2  0  0  0  0
 37 39  1  0  0  0  0
 39 40  1  0  0  0  0
 40 41  1  0  0  0  0
 40 42  1  0  0  0  0
 40 43  1  0  0  0  0
 35 44  1  0  0  0  0
 44 45  1  0  0  0  0
 44 46  1  0  0  0  0
 44 47  1  0  0  0  0
M  END
> <ChemID>
100719

> <source_casrn>
71626-11-4

> <CAS>
71626-11-4

> <SMILES>
COC(=O)C(C)N(c1c(C)cccc1C)C(=O)Cc1ccccc1

> <NAME>
BENALAXYL

> <preferred_name>
Benalaxyl

> <iupac>
methyl N-(2,6-dimethylphenyl)-N-(phenylacetyl)alaninate

> <MPID>
99967

> <dsstox_substance_id>
DTXSID3041619

> <Canonical_QSARr>
COC(=O)C(C)N(c1c(C)cccc1C)C(=O)Cc1ccccc1

> <InChI_Code_QSARr>
InChI=1S/C20H23NO3/c1-14-9-8-10-15(2)19(14)21(16(3)20(23)24-4)18(22)13-17-11-6-5-7-12-17/h5-12,16H,13H2,1-4H3

> <InChI Key_QSARr>
CJPQIRJHIZUAQP-UHFFFAOYSA-N

> <LogKOC>
3.54

$$$$
100723
  -INDIGO-08031722282D

 51 51  0  0  0  0  0  0  0  0999 V2000
    2.7713    1.6000    0.0000 C   0  0  0  0  0  0  0  0  0  0  0  0
    2.7713    0.0000    0.0000 C   0  0  0  0  0  0  0  0  0  0  0  0
    4.1570   -0.8000    0.0000 O   0  0  0  0  0  0  0  0  0  0  0  0
    4.1570   -2.3999    0.0000 H   0  0  0  0  0  0  0  0  0  0  0  0
    1.3856   -0.8000    0.0000 C   0  0  0  0  0  0  0  0  0  0  0  0
    2.4140   -2.0257    0.0000 H   0  0  0  0  0  0  0  0  0  0  0  0
    0.3573   -2.0257    0.0000 H   0  0  0  0  0  0  0  0  0  0  0  0
   -0.0000    0.0000    0.0000 C   0  0  0  0  0  0  0  0  0  0  0  0
   -0.5473   -1.5035    0.0000 H   0  0  0  0  0  0  0  0  0  0  0  0
   -1.5756    0.2779    0.0000 C   0  0  0  0  0  0  0  0  0  0  0  0
   -1.5058    1.8762    0.0000 H   0  0  0  0  0  0  0  0  0  0  0  0
   -2.6565    1.4574    0.0000 H   0  0  0  0  0  0  0  0  0  0  0  0
   -2.6043   -0.9479    0.0000 C   0  0  0  0  0  0  0  0  0  0  0  0
   -1.3785   -1.9763    0.0000 H   0  0  0  0  0  0  0  0  0  0  0  0
   -3.8298    0.0807    0.0000 S   0  0  0  0  0  0  0  0  0  0  0  0
   -5.4299    0.0807    0.0000 C   0  0  0  0  0  0  0  0  0  0  0  0
   -6.6993   -0.8934    0.0000 H   0  0  0  0  0  0  0  0  0  0  0  0
   -5.6386   -1.5057    0.0000 H   0  0  0  0  0  0  0  0  0  0  0  0
   -6.2297    1.4662    0.0000 C   0  0  0  0  0  0  0  0  0  0  0  0
   -7.0298    2.8519    0.0000 H   0  0  0  0  0  0  0  0  0  0  0  0
   -7.8298    1.4662    0.0000 H   0  0  0  0  0  0  0  0  0  0  0  0
   -5.4299    2.8519    0.0000 H   0  0  0  0  0  0  0  0  0  0  0  0
   -3.4041   -2.3334    0.0000 C   0  0  0  0  0  0  0  0  0  0  0  0
   -4.2041   -3.7191    0.0000 H   0  0  0  0  0  0  0  0  0  0  0  0
   -5.0042   -2.3334    0.0000 H   0  0  0  0  0  0  0  0  0  0  0  0
   -2.6043   -3.7191    0.0000 H   0  0  0  0  0  0  0  0  0  0  0  0
   -0.0000    1.6000    0.0000 C   0  0  0  0  0  0  0  0  0  0  0  0
   -1.5035    1.0528    0.0000 H   0  0  0  0  0  0  0  0  0  0  0  0
   -0.5473    3.1035    0.0000 H   0  0  0  0  0  0  0  0  0  0  0  0
    1.3856    2.4000    0.0000 C   0  0  0  0  0  0  0  0  0  0  0  0
    1.3856    3.9999    0.0000 O   0  0  0  0  0  0  0  0  0  0  0  0
    4.1570    2.4000    0.0000 C   0  0  0  0  0  0  0  0  0  0  0  0
    5.5427    1.6000    0.0000 N   0  0  0  0  0  0  0  0  0  0  0  0
    6.9281    2.4000    0.0000 O   0  0  0  0  0  0  0  0  0  0  0  0
    8.3138    1.6000    0.0000 C   0  0  0  0  0  0  0  0  0  0  0  0
    7.7016    0.1218    0.0000 H   0  0  0  0  0  0  0  0  0  0  0  0
    8.9262    0.1218    0.0000 H   0  0  0  0  0  0  0  0  0  0  0  0
    9.6994    2.4000    0.0000 C   0  0  0  0  0  0  0  0  0  0  0  0
   11.0851    3.2001    0.0000 H   0  0  0  0  0  0  0  0  0  0  0  0
   11.0851    1.6000    0.0000 H   0  0  0  0  0  0  0  0  0  0  0  0
    9.6994    3.9999    0.0000 H   0  0  0  0  0  0  0  0  0  0  0  0
    4.1570    3.9999    0.0000 C   0  0  0  0  0  0  0  0  0  0  0  0
    3.1829    5.2694    0.0000 H   0  0  0  0  0  0  0  0  0  0  0  0
    2.5707    4.2088    0.0000 H   0  0  0  0  0  0  0  0  0  0  0  0
    5.5427    4.8000    0.0000 C   0  0  0  0  0  0  0  0  0  0  0  0
    6.5165    3.5307    0.0000 H   0  0  0  0  0  0  0  0  0  0  0  0
    7.1290    4.5911    0.0000 H   0  0  0  0  0  0  0  0  0  0  0  0
    5.5427    6.4001    0.0000 C   0  0  0  0  0  0  0  0  0  0  0  0
    5.5427    8.0000    0.0000 H   0  0  0  0  0  0  0  0  0  0  0  0
    6.9281    7.2000    0.0000 H   0  0  0  0  0  0  0  0  0  0  0  0
    4.1570    7.2000    0.0000 H   0  0  0  0  0  0  0  0  0  0  0  0
  1  2  2  0  0  0  0
  2  3  1  0  0  0  0
  3  4  1  0  0  0  0
  2  5  1  0  0  0  0
  5  6  1  0  0  0  0
  5  7  1  0  0  0  0
  5  8  1  0  0  0  0
  8  9  1  0  0  0  0
  8 10  1  0  0  0  0
 10 11  1  0  0  0  0
 10 12  1  0  0  0  0
 10 13  1  0  0  0  0
 13 14  1  0  0  0  0
 13 15  1  0  0  0  0
 15 16  1  0  0  0  0
 16 17  1  0  0  0  0
 16 18  1  0  0  0  0
 16 19  1  0  0  0  0
 19 20  1  0  0  0  0
 19 21  1  0  0  0  0
 19 22  1  0  0  0  0
 13 23  1  0  0  0  0
 23 24  1  0  0  0  0
 23 25  1  0  0  0  0
 23 26  1  0  0  0  0
  8 27  1  0  0  0  0
 27 28  1  0  0  0  0
 27 29  1  0  0  0  0
 27 30  1  0  0  0  0
 30  1  1  0  0  0  0
 30 31  2  0  0  0  0
  1 32  1  0  0  0  0
 32 33  2  0  0  0  0
 33 34  1  0  0  0  0
 34 35  1  0  0  0  0
 35 36  1  0  0  0  0
 35 37  1  0  0  0  0
 35 38  1  0  0  0  0
 38 39  1  0  0  0  0
 38 40  1  0  0  0  0
 38 41  1  0  0  0  0
 32 42  1  0  0  0  0
 42 43  1  0  0  0  0
 42 44  1  0  0  0  0
 42 45  1  0  0  0  0
 45 46  1  0  0  0  0
 45 47  1  0  0  0  0
 45 48  1  0  0  0  0
 48 49  1  0  0  0  0
 48 50  1  0  0  0  0
 48 51  1  0  0  0  0
M  END
> <ChemID>
100723

> <source_casrn>
74051-80-2

> <CAS>
74051-80-2

> <SMILES>
CC(CC1CC(O)=C(C(=O)C1)C(CCC)=NOCC)SCC

> <NAME>
Sethoxydim

> <preferred_name>
Sethoxydim

> <iupac>
2-(N-ethoxybutanimidoyl)-5-[2-(ethylsulfanyl)propyl]-3-hydroxycyclohex-2-en-1-one

> <MPID>
99970

> <dsstox_substance_id>
DTXSID9024304

> <Canonical_QSARr>
CC(CC1CC(O)=C(C(=O)C1)C(CCC)=NOCC)SCC

> <InChI_Code_QSARr>
InChI=1S/C17H29NO3S/c1-5-8-14(18-21-6-2)17-15(19)10-13(11-16(17)20)9-12(4)22-7-3/h12-13,19H,5-11H2,1-4H3/b18-14+

> <InChI Key_QSARr>
CSPPKDPQLUUTND-NBVRZTHBSA-N

> <LogKOC>
2.0

$$$$
100727
  -INDIGO-08031722282D

 41 42  0  0  0  0  0  0  0  0999 V2000
   -2.7713    3.2000    0.0000 O   0  0  0  0  0  0  0  0  0  0  0  0
   -1.3855    2.4000    0.0000 C   0  0  0  0  0  0  0  0  0  0  0  0
    0.0001    3.2000    0.0000 O   0  0  0  0  0  0  0  0  0  0  0  0
   -1.3855    0.8000    0.0000 C   0  0  0  0  0  0  0  0  0  0  0  0
   -2.7713    0.0000    0.0000 C   0  0  0  0  0  0  0  0  0  0  0  0
   -4.1569    0.8000    0.0000 H   0  0  0  0  0  0  0  0  0  0  0  0
   -2.7713   -1.6000    0.0000 C   0  0  0  0  0  0  0  0  0  0  0  0
   -4.1569   -2.4000    0.0000 H   0  0  0  0  0  0  0  0  0  0  0  0
   -1.3855   -2.4000    0.0000 C   0  0  0  0  0  0  0  0  0  0  0  0
   -1.3855   -4.0000    0.0000 H   0  0  0  0  0  0  0  0  0  0  0  0
    0.0001   -1.6000    0.0000 C   0  0  0  0  0  0  0  0  0  0  0  0
    1.3856   -2.4000    0.0000 H   0  0  0  0  0  0  0  0  0  0  0  0
    0.0001    0.0000    0.0000 C   0  0  0  0  0  0  0  0  0  0  0  0
    1.3856    0.8000    0.0000 S   0  0  0  0  0  0  0  0  0  0  0  0
    2.1856   -0.5856    0.0000 O   0  0  0  0  0  0  0  0  0  0  0  0
    0.5857    2.1856    0.0000 O   0  0  0  0  0  0  0  0  0  0  0  0
    2.7712    1.6000    0.0000 N   0  0  0  0  0  0  0  0  0  0  0  0
    2.7712    3.2000    0.0000 H   0  0  0  0  0  0  0  0  0  0  0  0
    4.1570    0.8000    0.0000 C   0  0  0  0  0  0  0  0  0  0  0  0
    4.1570   -0.8000    0.0000 O   0  0  0  0  0  0  0  0  0  0  0  0
    5.5426    1.6000    0.0000 N   0  0  0  0  0  0  0  0  0  0  0  0
    5.5426    3.2000    0.0000 H   0  0  0  0  0  0  0  0  0  0  0  0
    6.9282    0.8000    0.0000 C   0  0  0  0  0  0  0  0  0  0  0  0
    6.9282   -0.8000    0.0000 N   0  0  0  0  0  0  0  0  0  0  0  0
    8.3138   -1.6000    0.0000 C   0  0  0  0  0  0  0  0  0  0  0  0
    8.3138   -3.2000    0.0000 O   0  0  0  0  0  0  0  0  0  0  0  0
    9.6996   -4.0000    0.0000 C   0  0  0  0  0  0  0  0  0  0  0  0
   11.0852   -4.8000    0.0000 H   0  0  0  0  0  0  0  0  0  0  0  0
    9.6996   -5.6000    0.0000 H   0  0  0  0  0  0  0  0  0  0  0  0
   11.0852   -3.2000    0.0000 H   0  0  0  0  0  0  0  0  0  0  0  0
    9.6996   -0.8000    0.0000 N   0  0  0  0  0  0  0  0  0  0  0  0
    9.6996    0.8000    0.0000 C   0  0  0  0  0  0  0  0  0  0  0  0
   11.0852    1.6000    0.0000 C   0  0  0  0  0  0  0  0  0  0  0  0
   12.4708    2.4000    0.0000 H   0  0  0  0  0  0  0  0  0  0  0  0
   12.4708    0.8000    0.0000 H   0  0  0  0  0  0  0  0  0  0  0  0
   11.0852    3.2000    0.0000 H   0  0  0  0  0  0  0  0  0  0  0  0
    8.3138    1.6000    0.0000 N   0  0  0  0  0  0  0  0  0  0  0  0
   -2.7713    4.8000    0.0000 C   0  0  0  0  0  0  0  0  0  0  0  0
   -2.7713    6.4000    0.0000 H   0  0  0  0  0  0  0  0  0  0  0  0
   -4.1569    5.6000    0.0000 H   0  0  0  0  0  0  0  0  0  0  0  0
   -1.3855    5.6000    0.0000 H   0  0  0  0  0  0  0  0  0  0  0  0
  1  2  1  0  0  0  0
  2  3  2  0  0  0  0
  2  4  1  0  0  0  0
  4  5  1  0  0  0  0
  5  6  1  0  0  0  0
  5  7  2  0  0  0  0
  7  8  1  0  0  0  0
  7  9  1  0  0  0  0
  9 10  1  0  0  0  0
  9 11  2  0  0  0  0
 11 12  1  0  0  0  0
 11 13  1  0  0  0  0
 13  4  2  0  0  0  0
 13 14  1  0  0  0  0
 14 15  2  0  0  0  0
 14 16  2  0  0  0  0
 14 17  1  0  0  0  0
 17 18  1  0  0  0  0
 17 19  1  0  0  0  0
 19 20  2  0  0  0  0
 19 21  1  0  0  0  0
 21 22  1  0  0  0  0
 21 23  1  0  0  0  0
 23 24  1  0  0  0  0
 24 25  2  0  0  0  0
 25 26  1  0  0  0  0
 26 27  1  0  0  0  0
 27 28  1  0  0  0  0
 27 29  1  0  0  0  0
 27 30  1  0  0  0  0
 25 31  1  0  0  0  0
 31 32  2  0  0  0  0
 32 33  1  0  0  0  0
 33 34  1  0  0  0  0
 33 35  1  0  0  0  0
 33 36  1  0  0  0  0
 32 37  1  0  0  0  0
 37 23  2  0  0  0  0
  1 38  1  0  0  0  0
 38 39  1  0  0  0  0
 38 40  1  0  0  0  0
 38 41  1  0  0  0  0
M  END
> <ChemID>
100727

> <source_casrn>
74223-64-6

> <CAS>
74223-64-6

> <SMILES>
Cc1[n]c(NC(=O)NS(=O)(=O)c2ccccc2C(=O)OC)[n]c([n]1)OC

> <NAME>
METSULFURON-METHYL

> <preferred_name>
Metsulfuron-methyl

> <iupac>
methyl 2-{[(4-methoxy-6-methyl-1,3,5-triazin-2-yl)carbamoyl]sulfamoyl}benzoate

> <MPID>
99974

> <dsstox_substance_id>
DTXSID6023864

> <Canonical_QSARr>
Cc1[n]c(NC(=O)NS(=O)(=O)c2ccccc2C(=O)OC)[n]c([n]1)OC

> <InChI_Code_QSARr>
InChI=1S/C14H15N5O6S/c1-8-15-12(18-14(16-8)25-3)17-13(21)19-26(22,23)10-7-5-4-6-9(10)11(20)24-2/h4-7H,1-3H3,(H2,15,16,17,18,19,21)

> <InChI Key_QSARr>
RSMUVYRMZCOLBH-UHFFFAOYSA-N

> <LogKOC>
1.54

$$$$
100733
  -INDIGO-08031722282D

 46 47  0  0  0  0  0  0  0  0999 V2000
   -1.3856    2.4001    0.0000 C   0  0  0  0  0  0  0  0  0  0  0  0
    0.0000    3.2000    0.0000 O   0  0  0  0  0  0  0  0  0  0  0  0
   -2.7713    3.2000    0.0000 C   0  0  0  0  0  0  0  0  0  0  0  0
   -2.7713    4.8000    0.0000 C   0  0  0  0  0  0  0  0  0  0  0  0
   -1.3856    5.6001    0.0000 N   0  0  0  0  0  0  0  0  0  0  0  0
   -1.3856    7.2000    0.0000 O   0  0  0  0  0  0  0  0  0  0  0  0
    0.0000    4.8000    0.0000 O   0  0  0  0  0  0  0  0  0  0  0  0
   -4.1569    5.6001    0.0000 C   0  0  0  0  0  0  0  0  0  0  0  0
   -4.1569    7.2000    0.0000 H   0  0  0  0  0  0  0  0  0  0  0  0
   -5.5425    4.8000    0.0000 C   0  0  0  0  0  0  0  0  0  0  0  0
   -6.9282    5.6001    0.0000 H   0  0  0  0  0  0  0  0  0  0  0  0
   -5.5425    3.2000    0.0000 C   0  0  0  0  0  0  0  0  0  0  0  0
   -6.9282    2.4001    0.0000 O   0  0  0  0  0  0  0  0  0  0  0  0
   -8.5040    2.6778    0.0000 C   0  0  0  0  0  0  0  0  0  0  0  0
   -9.0512    4.1813    0.0000 C   0  0  0  0  0  0  0  0  0  0  0  0
   -8.0228    5.4070    0.0000 Cl  0  0  0  0  0  0  0  0  0  0  0  0
  -10.6267    4.4592    0.0000 C   0  0  0  0  0  0  0  0  0  0  0  0
  -11.1741    5.9627    0.0000 H   0  0  0  0  0  0  0  0  0  0  0  0
  -11.6553    3.2335    0.0000 C   0  0  0  0  0  0  0  0  0  0  0  0
  -13.2309    3.5113    0.0000 C   0  0  0  0  0  0  0  0  0  0  0  0
  -14.8067    3.7892    0.0000 F   0  0  0  0  0  0  0  0  0  0  0  0
  -14.2595    2.2856    0.0000 F   0  0  0  0  0  0  0  0  0  0  0  0
  -13.7783    5.0149    0.0000 F   0  0  0  0  0  0  0  0  0  0  0  0
  -11.1081    1.7299    0.0000 C   0  0  0  0  0  0  0  0  0  0  0  0
  -12.1365    0.5044    0.0000 H   0  0  0  0  0  0  0  0  0  0  0  0
   -9.5323    1.4522    0.0000 C   0  0  0  0  0  0  0  0  0  0  0  0
   -8.9852   -0.0513    0.0000 H   0  0  0  0  0  0  0  0  0  0  0  0
   -4.1569    2.4001    0.0000 C   0  0  0  0  0  0  0  0  0  0  0  0
   -4.1569    0.8000    0.0000 H   0  0  0  0  0  0  0  0  0  0  0  0
   -1.3856    0.8000    0.0000 O   0  0  0  0  0  0  0  0  0  0  0  0
    0.0000    0.0000    0.0000 C   0  0  0  0  0  0  0  0  0  0  0  0
    0.8001    1.3857    0.0000 H   0  0  0  0  0  0  0  0  0  0  0  0
   -0.8001   -1.3856    0.0000 C   0  0  0  0  0  0  0  0  0  0  0  0
   -2.4000   -1.3856    0.0000 O   0  0  0  0  0  0  0  0  0  0  0  0
   -3.1999   -2.7713    0.0000 C   0  0  0  0  0  0  0  0  0  0  0  0
   -1.9307   -3.7453    0.0000 H   0  0  0  0  0  0  0  0  0  0  0  0
   -2.9912   -4.3576    0.0000 H   0  0  0  0  0  0  0  0  0  0  0  0
   -4.8001   -2.7713    0.0000 C   0  0  0  0  0  0  0  0  0  0  0  0
   -5.5999   -4.1569    0.0000 H   0  0  0  0  0  0  0  0  0  0  0  0
   -6.4000   -2.7713    0.0000 H   0  0  0  0  0  0  0  0  0  0  0  0
   -4.0000   -4.1569    0.0000 H   0  0  0  0  0  0  0  0  0  0  0  0
    0.0000   -2.7713    0.0000 O   0  0  0  0  0  0  0  0  0  0  0  0
    1.3856   -0.7999    0.0000 C   0  0  0  0  0  0  0  0  0  0  0  0
    2.7713   -1.6001    0.0000 H   0  0  0  0  0  0  0  0  0  0  0  0
    1.3856   -2.4000    0.0000 H   0  0  0  0  0  0  0  0  0  0  0  0
    2.7713    0.0000    0.0000 H   0  0  0  0  0  0  0  0  0  0  0  0
  1  2  2  0  0  0  0
  1  3  1  0  0  0  0
  3  4  1  0  0  0  0
  4  5  1  0  0  0  0
  5  6  1  0  0  0  0
  5  7  2  0  0  0  0
  4  8  2  0  0  0  0
  8  9  1  0  0  0  0
  8 10  1  0  0  0  0
 10 11  1  0  0  0  0
 10 12  2  0  0  0  0
 12 13  1  0  0  0  0
 13 14  1  0  0  0  0
 14 15  1  0  0  0  0
 15 16  1  0  0  0  0
 15 17  2  0  0  0  0
 17 18  1  0  0  0  0
 17 19  1  0  0  0  0
 19 20  1  0  0  0  0
 20 21  1  0  0  0  0
 20 22  1  0  0  0  0
 20 23  1  0  0  0  0
 19 24  2  0  0  0  0
 24 25  1  0  0  0  0
 24 26  1  0  0  0  0
 26 14  2  0  0  0  0
 26 27  1  0  0  0  0
 12 28  1  0  0  0  0
 28  3  2  0  0  0  0
 28 29  1  0  0  0  0
  1 30  1  0  0  0  0
 30 31  1  0  0  0  0
 31 32  1  0  0  0  0
 31 33  1  0  0  0  0
 33 34  1  0  0  0  0
 34 35  1  0  0  0  0
 35 36  1  0  0  0  0
 35 37  1  0  0  0  0
 35 38  1  0  0  0  0
 38 39  1  0  0  0  0
 38 40  1  0  0  0  0
 38 41  1  0  0  0  0
 33 42  2  0  0  0  0
 31 43  1  0  0  0  0
 43 44  1  0  0  0  0
 43 45  1  0  0  0  0
 43 46  1  0  0  0  0
M  CHG  2   5   1   6  -1
M  END
> <ChemID>
100733

> <source_casrn>
77501-63-4

> <CAS>
77501-63-4

> <SMILES>
CCOC(=O)C(C)OC(=O)c1cc(ccc1[N+]([O-])=O)Oc1ccc(cc1Cl)C(F)(F)F

> <NAME>
LACTOFEN

> <preferred_name>
Lactofen

> <iupac>
1-ethoxy-1-oxopropan-2-yl 5-[2-chloro-4-(trifluoromethyl)phenoxy]-2-nitrobenzoate

> <MPID>
99979

> <dsstox_substance_id>
DTXSID7024160

> <Canonical_QSARr>
CCOC(=O)C(C)OC(=O)c1cc(ccc1[N+]([O-])=O)Oc1ccc(cc1Cl)C(F)(F)F

> <InChI_Code_QSARr>
InChI=1S/C19H15ClF3NO7/c1-3-29-17(25)10(2)30-18(26)13-9-12(5-6-15(13)24(27)28)31-16-7-4-11(8-14(16)20)19(21,22)23/h4-10H,3H2,1-2H3

> <InChI Key_QSARr>
CONWAEURSVPLRM-UHFFFAOYSA-N

> <LogKOC>
4.0

$$$$
100738
  -INDIGO-08031722282D

 44 46  0  0  0  0  0  0  0  0999 V2000
   -4.2327    0.0661    0.0000 N   0  0  0  0  0  0  0  0  0  0  0  0
   -2.7293   -0.4813    0.0000 C   0  0  0  0  0  0  0  0  0  0  0  0
   -1.5035    0.5472    0.0000 N   0  0  0  0  0  0  0  0  0  0  0  0
   -1.7814    2.1229    0.0000 H   0  0  0  0  0  0  0  0  0  0  0  0
    0.0001    0.0000    0.0000 C   0  0  0  0  0  0  0  0  0  0  0  0
   -1.2256   -1.0284    0.0000 H   0  0  0  0  0  0  0  0  0  0  0  0
    0.7999    1.3856    0.0000 C   0  0  0  0  0  0  0  0  0  0  0  0
   -0.7034    1.9329    0.0000 H   0  0  0  0  0  0  0  0  0  0  0  0
    1.0778    2.9613    0.0000 H   0  0  0  0  0  0  0  0  0  0  0  0
    2.4001    1.3856    0.0000 C   0  0  0  0  0  0  0  0  0  0  0  0
    2.1222    2.9613    0.0000 H   0  0  0  0  0  0  0  0  0  0  0  0
    3.9035    1.9329    0.0000 H   0  0  0  0  0  0  0  0  0  0  0  0
    3.1999    0.0000    0.0000 C   0  0  0  0  0  0  0  0  0  0  0  0
    4.4257    1.0284    0.0000 H   0  0  0  0  0  0  0  0  0  0  0  0
    4.4257   -1.0284    0.0000 H   0  0  0  0  0  0  0  0  0  0  0  0
    2.4001   -1.3856    0.0000 C   0  0  0  0  0  0  0  0  0  0  0  0
    3.9035   -1.9329    0.0000 H   0  0  0  0  0  0  0  0  0  0  0  0
    2.1222   -2.9613    0.0000 H   0  0  0  0  0  0  0  0  0  0  0  0
    0.7999   -1.3856    0.0000 C   0  0  0  0  0  0  0  0  0  0  0  0
    1.0778   -2.9613    0.0000 H   0  0  0  0  0  0  0  0  0  0  0  0
   -0.7034   -1.9329    0.0000 H   0  0  0  0  0  0  0  0  0  0  0  0
   -2.4514   -2.0569    0.0000 O   0  0  0  0  0  0  0  0  0  0  0  0
   -5.5591   -0.8287    0.0000 C   0  0  0  0  0  0  0  0  0  0  0  0
   -5.6151   -2.4277    0.0000 O   0  0  0  0  0  0  0  0  0  0  0  0
   -6.8200    0.1564    0.0000 S   0  0  0  0  0  0  0  0  0  0  0  0
   -6.2727    1.6599    0.0000 C   0  0  0  0  0  0  0  0  0  0  0  0
   -6.0501    3.2443    0.0000 H   0  0  0  0  0  0  0  0  0  0  0  0
   -7.8251    2.0469    0.0000 C   0  0  0  0  0  0  0  0  0  0  0  0
   -8.9366    0.8959    0.0000 C   0  0  0  0  0  0  0  0  0  0  0  0
   -8.4957   -0.6421    0.0000 H   0  0  0  0  0  0  0  0  0  0  0  0
  -10.4890    1.2831    0.0000 C   0  0  0  0  0  0  0  0  0  0  0  0
  -11.6005    0.1321    0.0000 H   0  0  0  0  0  0  0  0  0  0  0  0
  -10.9302    2.8211    0.0000 C   0  0  0  0  0  0  0  0  0  0  0  0
  -12.4826    3.2082    0.0000 Cl  0  0  0  0  0  0  0  0  0  0  0  0
   -9.8187    3.9721    0.0000 C   0  0  0  0  0  0  0  0  0  0  0  0
  -10.2597    5.5101    0.0000 H   0  0  0  0  0  0  0  0  0  0  0  0
   -8.2663    3.5849    0.0000 C   0  0  0  0  0  0  0  0  0  0  0  0
   -7.1548    4.7359    0.0000 H   0  0  0  0  0  0  0  0  0  0  0  0
   -4.6736    1.6040    0.0000 C   0  0  0  0  0  0  0  0  0  0  0  0
   -3.0980    1.8818    0.0000 H   0  0  0  0  0  0  0  0  0  0  0  0
   -4.2327    3.1420    0.0000 C   0  0  0  0  0  0  0  0  0  0  0  0
   -3.7918    4.6800    0.0000 H   0  0  0  0  0  0  0  0  0  0  0  0
   -2.6803    3.5291    0.0000 H   0  0  0  0  0  0  0  0  0  0  0  0
   -5.3442    4.2930    0.0000 H   0  0  0  0  0  0  0  0  0  0  0  0
  1  2  1  0  0  0  0
  2  3  1  0  0  0  0
  3  4  1  0  0  0  0
  3  5  1  0  0  0  0
  5  6  1  0  0  0  0
  5  7  1  0  0  0  0
  7  8  1  0  0  0  0
  7  9  1  0  0  0  0
  7 10  1  0  0  0  0
 10 11  1  0  0  0  0
 10 12  1  0  0  0  0
 10 13  1  0  0  0  0
 13 14  1  0  0  0  0
 13 15  1  0  0  0  0
 13 16  1  0  0  0  0
 16 17  1  0  0  0  0
 16 18  1  0  0  0  0
 16 19  1  0  0  0  0
 19  5  1  0  0  0  0
 19 20  1  0  0  0  0
 19 21  1  0  0  0  0
  2 22  2  0  0  0  0
  1 23  1  0  0  0  0
 23 24  2  0  0  0  0
 23 25  1  0  0  0  0
 25 26  1  0  0  0  0
 26 27  1  0  0  0  0
 26 28  1  0  0  0  0
 28 29  1  0  0  0  0
 29 30  1  0  0  0  0
 29 31  2  0  0  0  0
 31 32  1  0  0  0  0
 31 33  1  0  0  0  0
 33 34  1  0  0  0  0
 33 35  2  0  0  0  0
 35 36  1  0  0  0  0
 35 37  1  0  0  0  0
 37 28  2  0  0  0  0
 37 38  1  0  0  0  0
 26 39  1  0  0  0  0
 39  1  1  0  0  0  0
 39 40  1  0  0  0  0
 39 41  1  0  0  0  0
 41 42  1  0  0  0  0
 41 43  1  0  0  0  0
 41 44  1  0  0  0  0
M  END
> <ChemID>
100738

> <source_casrn>
78587-05-0

> <CAS>
78587-05-0

> <SMILES>
C[C@@H]1[C@H](SC(=O)N1C(=O)NC1CCCCC1)c1ccc(Cl)cc1 |o1:1,2|

> <NAME>
Hexythiazox

> <preferred_name>
Hexythiazox

> <iupac>


> <MPID>
99983

> <dsstox_substance_id>
DTXSID7024299

> <Canonical_QSARr>
CC1C(SC(=O)N1C(=O)NC1CCCCC1)c1ccc(Cl)cc1

> <InChI_Code_QSARr>
InChI=1S/C17H21ClN2O2S/c1-11-15(12-7-9-13(18)10-8-12)23-17(22)20(11)16(21)19-14-5-3-2-4-6-14/h7-11,14-15H,2-6H2,1H3,(H,19,21)

> <InChI Key_QSARr>
XGWIJUOSCAQSSV-UHFFFAOYSA-N

> <LogKOC>
3.79

$$$$
100744
  -INDIGO-08031722282D

 36 36  0  0  0  0  0  0  0  0999 V2000
    1.6001    2.7713    0.0000 O   0  0  0  0  0  0  0  0  0  0  0  0
    2.4000    1.3856    0.0000 C   0  0  0  0  0  0  0  0  0  0  0  0
    1.6001    0.0000    0.0000 N   0  0  0  0  0  0  0  0  0  0  0  0
    2.4000   -1.3856    0.0000 H   0  0  0  0  0  0  0  0  0  0  0  0
   -0.0000    0.0000    0.0000 C   0  0  0  0  0  0  0  0  0  0  0  0
   -1.5999    0.0000    0.0000 C   0  0  0  0  0  0  0  0  0  0  0  0
   -3.2000    0.0000    0.0000 H   0  0  0  0  0  0  0  0  0  0  0  0
   -2.4001   -1.3856    0.0000 H   0  0  0  0  0  0  0  0  0  0  0  0
   -2.4001    1.3856    0.0000 H   0  0  0  0  0  0  0  0  0  0  0  0
   -0.0000   -1.6000    0.0000 C   0  0  0  0  0  0  0  0  0  0  0  0
   -0.0000   -3.2000    0.0000 H   0  0  0  0  0  0  0  0  0  0  0  0
   -1.3856   -2.4001    0.0000 H   0  0  0  0  0  0  0  0  0  0  0  0
    1.3855   -2.4001    0.0000 H   0  0  0  0  0  0  0  0  0  0  0  0
   -0.0000    1.6000    0.0000 C   0  0  0  0  0  0  0  0  0  0  0  0
   -0.0000    3.2000    0.0000 C   0  0  0  0  0  0  0  0  0  0  0  0
   -0.0000    4.8000    0.0000 H   0  0  0  0  0  0  0  0  0  0  0  0
    4.0001    1.3856    0.0000 C   0  0  0  0  0  0  0  0  0  0  0  0
    4.8001    2.7713    0.0000 C   0  0  0  0  0  0  0  0  0  0  0  0
    4.0001    4.1569    0.0000 H   0  0  0  0  0  0  0  0  0  0  0  0
    6.3999    2.7713    0.0000 C   0  0  0  0  0  0  0  0  0  0  0  0
    7.2001    4.1569    0.0000 H   0  0  0  0  0  0  0  0  0  0  0  0
    7.2001    1.3856    0.0000 C   0  0  0  0  0  0  0  0  0  0  0  0
    8.8000    1.3856    0.0000 C   0  0  0  0  0  0  0  0  0  0  0  0
    8.8000   -0.2144    0.0000 H   0  0  0  0  0  0  0  0  0  0  0  0
   10.3758    1.1078    0.0000 C   0  0  0  0  0  0  0  0  0  0  0  0
   11.9514    0.8300    0.0000 H   0  0  0  0  0  0  0  0  0  0  0  0
   10.9230   -0.3958    0.0000 H   0  0  0  0  0  0  0  0  0  0  0  0
   11.4041    2.3335    0.0000 H   0  0  0  0  0  0  0  0  0  0  0  0
    8.8000    2.9856    0.0000 C   0  0  0  0  0  0  0  0  0  0  0  0
    8.8000    4.5856    0.0000 H   0  0  0  0  0  0  0  0  0  0  0  0
   10.1857    3.7857    0.0000 H   0  0  0  0  0  0  0  0  0  0  0  0
   10.1857    2.1856    0.0000 H   0  0  0  0  0  0  0  0  0  0  0  0
    6.3999    0.0000    0.0000 C   0  0  0  0  0  0  0  0  0  0  0  0
    7.2001   -1.3856    0.0000 H   0  0  0  0  0  0  0  0  0  0  0  0
    4.8001    0.0000    0.0000 C   0  0  0  0  0  0  0  0  0  0  0  0
    4.0001   -1.3856    0.0000 H   0  0  0  0  0  0  0  0  0  0  0  0
  1  2  2  0  0  0  0
  2  3  1  0  0  0  0
  3  4  1  0  0  0  0
  3  5  1  0  0  0  0
  5  6  1  0  0  0  0
  6  7  1  0  0  0  0
  6  8  1  0  0  0  0
  6  9  1  0  0  0  0
  5 10  1  0  0  0  0
 10 11  1  0  0  0  0
 10 12  1  0  0  0  0
 10 13  1  0  0  0  0
  5 14  1  0  0  0  0
 14 15  3  0  0  0  0
 15 16  1  0  0  0  0
  2 17  1  0  0  0  0
 17 18  1  0  0  0  0
 18 19  1  0  0  0  0
 18 20  2  0  0  0  0
 20 21  1  0  0  0  0
 20 22  1  0  0  0  0
 22 23  1  0  0  0  0
 23 24  1  0  0  0  0
 23 25  1  0  0  0  0
 25 26  1  0  0  0  0
 25 27  1  0  0  0  0
 25 28  1  0  0  0  0
 23 29  1  0  0  0  0
 29 30  1  0  0  0  0
 29 31  1  0  0  0  0
 29 32  1  0  0  0  0
 22 33  2  0  0  0  0
 33 34  1  0  0  0  0
 33 35  1  0  0  0  0
 35 17  2  0  0  0  0
 35 36  1  0  0  0  0
M  END
> <ChemID>
100744

> <source_casrn>
80045-52-9

> <CAS>
80045-52-9

> <SMILES>
C#CC(NC(=O)c1ccc(cc1)C(C)C)(C)C

> <NAME>
ISOPROPYLPROPYZAMIDE

> <preferred_name>
Isopropylpropyzamide

> <iupac>
N-(2-methylbut-3-yn-2-yl)-4-propan-2-ylbenzamide

> <MPID>
99989

> <dsstox_substance_id>
DTXSID40230046

> <Canonical_QSARr>
CC(C)c1ccc(cc1)C(=O)NC(C)(C)C#C

> <InChI_Code_QSARr>
InChI=1S/C15H19NO/c1-6-15(4,5)16-14(17)13-9-7-12(8-10-13)11(2)3/h1,7-11H,2-5H3,(H,16,17)

> <InChI Key_QSARr>
IJSXOOSTBVECCN-UHFFFAOYSA-N

> <LogKOC>
2.17

$$$$
100749
  -INDIGO-08031722282D

 30 31  0  0  0  0  0  0  0  0999 V2000
   -2.4621    0.8000    0.0000 N   0  0  0  0  0  0  0  0  0  0  0  0
   -0.9405    1.2944    0.0000 C   0  0  0  0  0  0  0  0  0  0  0  0
   -0.4460    2.8161    0.0000 O   0  0  0  0  0  0  0  0  0  0  0  0
    0.0001    0.0000    0.0000 C   0  0  0  0  0  0  0  0  0  0  0  0
    1.1891    1.0706    0.0000 C   0  0  0  0  0  0  0  0  0  0  0  0
    2.3781    2.1412    0.0000 H   0  0  0  0  0  0  0  0  0  0  0  0
    2.7107    0.5762    0.0000 H   0  0  0  0  0  0  0  0  0  0  0  0
    0.8563    2.6357    0.0000 H   0  0  0  0  0  0  0  0  0  0  0  0
    1.1891   -1.0706    0.0000 C   0  0  0  0  0  0  0  0  0  0  0  0
    2.3781   -2.1412    0.0000 H   0  0  0  0  0  0  0  0  0  0  0  0
    2.7107   -0.5762    0.0000 H   0  0  0  0  0  0  0  0  0  0  0  0
    1.1331   -2.6696    0.0000 H   0  0  0  0  0  0  0  0  0  0  0  0
   -0.9405   -1.2944    0.0000 C   0  0  0  0  0  0  0  0  0  0  0  0
    0.0880   -2.5201    0.0000 H   0  0  0  0  0  0  0  0  0  0  0  0
   -1.5912   -2.7561    0.0000 H   0  0  0  0  0  0  0  0  0  0  0  0
   -2.4621   -0.8000    0.0000 O   0  0  0  0  0  0  0  0  0  0  0  0
   -3.7566    1.7405    0.0000 C   0  0  0  0  0  0  0  0  0  0  0  0
   -2.9932    3.1466    0.0000 H   0  0  0  0  0  0  0  0  0  0  0  0
   -4.2109    3.2745    0.0000 H   0  0  0  0  0  0  0  0  0  0  0  0
   -5.2183    1.0896    0.0000 C   0  0  0  0  0  0  0  0  0  0  0  0
   -5.3855   -0.5015    0.0000 C   0  0  0  0  0  0  0  0  0  0  0  0
   -4.0910   -1.4420    0.0000 Cl  0  0  0  0  0  0  0  0  0  0  0  0
   -6.8472   -1.1524    0.0000 C   0  0  0  0  0  0  0  0  0  0  0  0
   -7.0144   -2.7435    0.0000 H   0  0  0  0  0  0  0  0  0  0  0  0
   -8.1416   -0.2119    0.0000 C   0  0  0  0  0  0  0  0  0  0  0  0
   -9.6033   -0.8627    0.0000 H   0  0  0  0  0  0  0  0  0  0  0  0
   -7.9744    1.3794    0.0000 C   0  0  0  0  0  0  0  0  0  0  0  0
   -9.2688    2.3198    0.0000 H   0  0  0  0  0  0  0  0  0  0  0  0
   -6.5127    2.0301    0.0000 C   0  0  0  0  0  0  0  0  0  0  0  0
   -6.3455    3.6214    0.0000 H   0  0  0  0  0  0  0  0  0  0  0  0
  1  2  1  0  0  0  0
  2  3  2  0  0  0  0
  2  4  1  0  0  0  0
  4  5  1  0  0  0  0
  5  6  1  0  0  0  0
  5  7  1  0  0  0  0
  5  8  1  0  0  0  0
  4  9  1  0  0  0  0
  9 10  1  0  0  0  0
  9 11  1  0  0  0  0
  9 12  1  0  0  0  0
  4 13  1  0  0  0  0
 13 14  1  0  0  0  0
 13 15  1  0  0  0  0
 13 16  1  0  0  0  0
 16  1  1  0  0  0  0
  1 17  1  0  0  0  0
 17 18  1  0  0  0  0
 17 19  1  0  0  0  0
 17 20  1  0  0  0  0
 20 21  1  0  0  0  0
 21 22  1  0  0  0  0
 21 23  2  0  0  0  0
 23 24  1  0  0  0  0
 23 25  1  0  0  0  0
 25 26  1  0  0  0  0
 25 27  2  0  0  0  0
 27 28  1  0  0  0  0
 27 29  1  0  0  0  0
 29 20  2  0  0  0  0
 29 30  1  0  0  0  0
M  END
> <ChemID>
100749

> <source_casrn>
81777-89-1

> <CAS>
81777-89-1

> <SMILES>
CC1(C)CON(Cc2ccccc2Cl)C1=O

> <NAME>
CLOMAZONE

> <preferred_name>
Clomazone

> <iupac>
2-(2-chlorobenzyl)-4,4-dimethyl-1,2-oxazolidin-3-one

> <MPID>
99993

> <dsstox_substance_id>
DTXSID1032355

> <Canonical_QSARr>
CC1(C)CON(Cc2ccccc2Cl)C1=O

> <InChI_Code_QSARr>
InChI=1S/C12H14ClNO2/c1-12(2)8-16-14(11(12)15)7-9-5-3-4-6-10(9)13/h3-6H,7-8H2,1-2H3

> <InChI Key_QSARr>
KIEDNEWSYUYDSN-UHFFFAOYSA-N

> <LogKOC>
2.44

$$$$
100753
  -INDIGO-08031722282D

 46 47  0  0  0  0  0  0  0  0999 V2000
   -2.7714    0.0000    0.0000 C   0  0  0  0  0  0  0  0  0  0  0  0
   -1.3858   -0.8000    0.0000 C   0  0  0  0  0  0  0  0  0  0  0  0
    0.0001    0.0000    0.0000 C   0  0  0  0  0  0  0  0  0  0  0  0
    0.6122    1.4782    0.0000 H   0  0  0  0  0  0  0  0  0  0  0  0
   -0.6123    1.4782    0.0000 H   0  0  0  0  0  0  0  0  0  0  0  0
    1.3857   -0.8000    0.0000 S   0  0  0  0  0  0  0  0  0  0  0  0
    2.7713   -1.5999    0.0000 N   0  0  0  0  0  0  0  0  0  0  0  0
    2.7713   -3.2000    0.0000 H   0  0  0  0  0  0  0  0  0  0  0  0
    4.1569   -0.8000    0.0000 C   0  0  0  0  0  0  0  0  0  0  0  0
    5.5425   -1.5999    0.0000 N   0  0  0  0  0  0  0  0  0  0  0  0
    5.5425   -3.2000    0.0000 H   0  0  0  0  0  0  0  0  0  0  0  0
    6.9281   -0.8000    0.0000 C   0  0  0  0  0  0  0  0  0  0  0  0
    6.9281    0.8000    0.0000 N   0  0  0  0  0  0  0  0  0  0  0  0
    8.3140    1.6000    0.0000 C   0  0  0  0  0  0  0  0  0  0  0  0
    8.3140    3.2001    0.0000 O   0  0  0  0  0  0  0  0  0  0  0  0
    9.6996    4.0000    0.0000 C   0  0  0  0  0  0  0  0  0  0  0  0
    9.6996    5.6000    0.0000 H   0  0  0  0  0  0  0  0  0  0  0  0
   11.0852    4.8000    0.0000 H   0  0  0  0  0  0  0  0  0  0  0  0
    8.3140    4.8000    0.0000 H   0  0  0  0  0  0  0  0  0  0  0  0
    9.6996    0.8000    0.0000 C   0  0  0  0  0  0  0  0  0  0  0  0
   11.0852    1.6000    0.0000 H   0  0  0  0  0  0  0  0  0  0  0  0
    9.6996   -0.8000    0.0000 C   0  0  0  0  0  0  0  0  0  0  0  0
   11.0852   -1.5999    0.0000 O   0  0  0  0  0  0  0  0  0  0  0  0
   11.0852   -3.2000    0.0000 C   0  0  0  0  0  0  0  0  0  0  0  0
   12.4708   -4.0000    0.0000 H   0  0  0  0  0  0  0  0  0  0  0  0
   11.0852   -4.8000    0.0000 H   0  0  0  0  0  0  0  0  0  0  0  0
    9.6996   -4.0000    0.0000 H   0  0  0  0  0  0  0  0  0  0  0  0
    8.3140   -1.5999    0.0000 N   0  0  0  0  0  0  0  0  0  0  0  0
    4.1569    0.8000    0.0000 O   0  0  0  0  0  0  0  0  0  0  0  0
    2.1856    0.5856    0.0000 O   0  0  0  0  0  0  0  0  0  0  0  0
    0.5856   -2.1857    0.0000 O   0  0  0  0  0  0  0  0  0  0  0  0
   -1.3858   -2.4001    0.0000 C   0  0  0  0  0  0  0  0  0  0  0  0
    0.0001   -3.2000    0.0000 H   0  0  0  0  0  0  0  0  0  0  0  0
   -2.7714   -3.2000    0.0000 C   0  0  0  0  0  0  0  0  0  0  0  0
   -2.7714   -4.8000    0.0000 H   0  0  0  0  0  0  0  0  0  0  0  0
   -4.1570   -2.4001    0.0000 C   0  0  0  0  0  0  0  0  0  0  0  0
   -5.5426   -3.2000    0.0000 H   0  0  0  0  0  0  0  0  0  0  0  0
   -4.1570   -0.8000    0.0000 C   0  0  0  0  0  0  0  0  0  0  0  0
   -5.5426    0.0000    0.0000 H   0  0  0  0  0  0  0  0  0  0  0  0
   -2.7714    1.6000    0.0000 C   0  0  0  0  0  0  0  0  0  0  0  0
   -4.1570    2.3999    0.0000 O   0  0  0  0  0  0  0  0  0  0  0  0
   -4.1570    4.0000    0.0000 C   0  0  0  0  0  0  0  0  0  0  0  0
   -4.1570    5.6000    0.0000 H   0  0  0  0  0  0  0  0  0  0  0  0
   -5.5426    4.8000    0.0000 H   0  0  0  0  0  0  0  0  0  0  0  0
   -2.7714    4.8000    0.0000 H   0  0  0  0  0  0  0  0  0  0  0  0
   -1.3858    2.3999    0.0000 O   0  0  0  0  0  0  0  0  0  0  0  0
  1  2  1  0  0  0  0
  2  3  1  0  0  0  0
  3  4  1  0  0  0  0
  3  5  1  0  0  0  0
  3  6  1  0  0  0  0
  6  7  1  0  0  0  0
  7  8  1  0  0  0  0
  7  9  1  0  0  0  0
  9 10  1  0  0  0  0
 10 11  1  0  0  0  0
 10 12  1  0  0  0  0
 12 13  1  0  0  0  0
 13 14  2  0  0  0  0
 14 15  1  0  0  0  0
 15 16  1  0  0  0  0
 16 17  1  0  0  0  0
 16 18  1  0  0  0  0
 16 19  1  0  0  0  0
 14 20  1  0  0  0  0
 20 21  1  0  0  0  0
 20 22  2  0  0  0  0
 22 23  1  0  0  0  0
 23 24  1  0  0  0  0
 24 25  1  0  0  0  0
 24 26  1  0  0  0  0
 24 27  1  0  0  0  0
 22 28  1  0  0  0  0
 28 12  2  0  0  0  0
  9 29  2  0  0  0  0
  6 30  2  0  0  0  0
  6 31  2  0  0  0  0
  2 32  2  0  0  0  0
 32 33  1  0  0  0  0
 32 34  1  0  0  0  0
 34 35  1  0  0  0  0
 34 36  2  0  0  0  0
 36 37  1  0  0  0  0
 36 38  1  0  0  0  0
 38  1  2  0  0  0  0
 38 39  1  0  0  0  0
  1 40  1  0  0  0  0
 40 41  1  0  0  0  0
 41 42  1  0  0  0  0
 42 43  1  0  0  0  0
 42 44  1  0  0  0  0
 42 45  1  0  0  0  0
 40 46  2  0  0  0  0
M  END
> <ChemID>
100753

> <source_casrn>
83055-99-6

> <CAS>
83055-99-6

> <SMILES>
n1c(OC)cc(OC)nc1NC(=O)NS(=O)(=O)Cc2ccccc2C(=O)OC

> <NAME>
BENSULFURON-METHYL (PH7)

> <preferred_name>
Bensulfuron-methyl

> <iupac>
methyl 2-({[(4,6-dimethoxypyrimidin-2-yl)carbamoyl]sulfamoyl}methyl)benzoate

> <MPID>
99997

> <dsstox_substance_id>
DTXSID7024164

> <Canonical_QSARr>
COC(=O)c1ccccc1CS(=O)(=O)NC(=O)Nc1[n]c(cc([n]1)OC)OC

> <InChI_Code_QSARr>
InChI=1S/C16H18N4O7S/c1-25-12-8-13(26-2)18-15(17-12)19-16(22)20-28(23,24)9-10-6-4-5-7-11(10)14(21)27-3/h4-8H,9H2,1-3H3,(H2,17,18,19,20,22)

> <InChI Key_QSARr>
XMQFTWRPUQYINF-UHFFFAOYSA-N

> <LogKOC>
2.5

$$$$
100757
  -INDIGO-08031722282D

 37 38  0  0  0  0  0  0  0  0999 V2000
    0.0000    0.0000    0.0000 C   0  0  0  0  0  0  0  0  0  0  0  0
    0.5472   -1.5035    0.0000 C   0  0  0  0  0  0  0  0  0  0  0  0
    1.0944   -3.0069    0.0000 N   0  0  0  0  0  0  0  0  0  0  0  0
   -0.5472    1.5035    0.0000 C   0  0  0  0  0  0  0  0  0  0  0  0
   -2.1094    1.1573    0.0000 H   0  0  0  0  0  0  0  0  0  0  0  0
   -1.8966    2.3632    0.0000 H   0  0  0  0  0  0  0  0  0  0  0  0
    0.2527    2.8892    0.0000 N   0  0  0  0  0  0  0  0  0  0  0  0
    1.8440    3.0564    0.0000 N   0  0  0  0  0  0  0  0  0  0  0  0
    2.1766    4.6215    0.0000 C   0  0  0  0  0  0  0  0  0  0  0  0
    3.6383    5.2722    0.0000 H   0  0  0  0  0  0  0  0  0  0  0  0
    0.7910    5.4214    0.0000 N   0  0  0  0  0  0  0  0  0  0  0  0
   -0.3979    4.3509    0.0000 C   0  0  0  0  0  0  0  0  0  0  0  0
   -1.9630    4.6835    0.0000 H   0  0  0  0  0  0  0  0  0  0  0  0
   -1.5035   -0.5473    0.0000 C   0  0  0  0  0  0  0  0  0  0  0  0
   -2.8892    0.2528    0.0000 C   0  0  0  0  0  0  0  0  0  0  0  0
   -2.8892    1.8527    0.0000 H   0  0  0  0  0  0  0  0  0  0  0  0
   -4.2748   -0.5473    0.0000 C   0  0  0  0  0  0  0  0  0  0  0  0
   -5.6604    0.2528    0.0000 H   0  0  0  0  0  0  0  0  0  0  0  0
   -4.2748   -2.1472    0.0000 C   0  0  0  0  0  0  0  0  0  0  0  0
   -5.6604   -2.9472    0.0000 Cl  0  0  0  0  0  0  0  0  0  0  0  0
   -2.8892   -2.9472    0.0000 C   0  0  0  0  0  0  0  0  0  0  0  0
   -2.8892   -4.5472    0.0000 H   0  0  0  0  0  0  0  0  0  0  0  0
   -1.5035   -2.1472    0.0000 C   0  0  0  0  0  0  0  0  0  0  0  0
   -0.1179   -2.9472    0.0000 H   0  0  0  0  0  0  0  0  0  0  0  0
    1.5035    0.5473    0.0000 C   0  0  0  0  0  0  0  0  0  0  0  0
    1.1572    2.1093    0.0000 H   0  0  0  0  0  0  0  0  0  0  0  0
    2.3633    1.8967    0.0000 H   0  0  0  0  0  0  0  0  0  0  0  0
    2.7292   -0.4813    0.0000 C   0  0  0  0  0  0  0  0  0  0  0  0
    3.0755   -2.0433    0.0000 H   0  0  0  0  0  0  0  0  0  0  0  0
    1.8694   -1.8307    0.0000 H   0  0  0  0  0  0  0  0  0  0  0  0
    4.2327    0.0660    0.0000 C   0  0  0  0  0  0  0  0  0  0  0  0
    3.8864    1.6281    0.0000 H   0  0  0  0  0  0  0  0  0  0  0  0
    5.0925    1.4154    0.0000 H   0  0  0  0  0  0  0  0  0  0  0  0
    5.4584   -0.9624    0.0000 C   0  0  0  0  0  0  0  0  0  0  0  0
    6.6839   -1.9910    0.0000 H   0  0  0  0  0  0  0  0  0  0  0  0
    6.9619   -0.4153    0.0000 H   0  0  0  0  0  0  0  0  0  0  0  0
    5.1805   -2.5381    0.0000 H   0  0  0  0  0  0  0  0  0  0  0  0
  1  2  1  0  0  0  0
  2  3  3  0  0  0  0
  1  4  1  0  0  0  0
  4  5  1  0  0  0  0
  4  6  1  0  0  0  0
  4  7  1  0  0  0  0
  7  8  1  0  0  0  0
  8  9  2  0  0  0  0
  9 10  1  0  0  0  0
  9 11  1  0  0  0  0
 11 12  2  0  0  0  0
 12  7  1  0  0  0  0
 12 13  1  0  0  0  0
  1 14  1  0  0  0  0
 14 15  1  0  0  0  0
 15 16  1  0  0  0  0
 15 17  2  0  0  0  0
 17 18  1  0  0  0  0
 17 19  1  0  0  0  0
 19 20  1  0  0  0  0
 19 21  2  0  0  0  0
 21 22  1  0  0  0  0
 21 23  1  0  0  0  0
 23 14  2  0  0  0  0
 23 24  1  0  0  0  0
  1 25  1  0  0  0  0
 25 26  1  0  0  0  0
 25 27  1  0  0  0  0
 25 28  1  0  0  0  0
 28 29  1  0  0  0  0
 28 30  1  0  0  0  0
 28 31  1  0  0  0  0
 31 32  1  0  0  0  0
 31 33  1  0  0  0  0
 31 34  1  0  0  0  0
 34 35  1  0  0  0  0
 34 36  1  0  0  0  0
 34 37  1  0  0  0  0
M  END
> <ChemID>
100757

> <source_casrn>
88671-89-0

> <CAS>
88671-89-0

> <SMILES>
c1cc(Cl)ccc1C(C#N)(CCCC)Cn2ncnc2

> <NAME>
MYCLOBUTANIL

> <preferred_name>
Myclobutanil

> <iupac>
2-(4-chlorophenyl)-2-(1H-1,2,4-triazol-1-ylmethyl)hexanenitrile

> <MPID>
100001

> <dsstox_substance_id>
DTXSID8024315

> <Canonical_QSARr>
CCCCC(C[n]1c[n]c[n]1)(C#N)c1ccc(Cl)cc1

> <InChI_Code_QSARr>
InChI=1S/C15H17ClN4/c1-2-3-8-15(9-17,10-20-12-18-11-19-20)13-4-6-14(16)7-5-13/h4-7,11-12H,2-3,8,10H2,1H3

> <InChI Key_QSARr>
HZJKXKUJVSEEFU-UHFFFAOYSA-N

> <LogKOC>
2.7

$$$$
100763
  -INDIGO-08031722282D

 44 45  0  0  0  0  0  0  0  0999 V2000
    0.0001    0.0000    0.0000 C   0  0  0  0  0  0  0  0  0  0  0  0
    1.3856    0.8000    0.0000 S   0  0  0  0  0  0  0  0  0  0  0  0
    2.7712    1.6000    0.0000 N   0  0  0  0  0  0  0  0  0  0  0  0
    2.7712    3.2000    0.0000 H   0  0  0  0  0  0  0  0  0  0  0  0
    4.1570    0.8000    0.0000 C   0  0  0  0  0  0  0  0  0  0  0  0
    5.5426    1.6000    0.0000 N   0  0  0  0  0  0  0  0  0  0  0  0
    6.9282    0.8000    0.0000 C   0  0  0  0  0  0  0  0  0  0  0  0
    6.9282   -0.8000    0.0000 N   0  0  0  0  0  0  0  0  0  0  0  0
    8.3138   -1.6000    0.0000 C   0  0  0  0  0  0  0  0  0  0  0  0
    8.3138   -3.2000    0.0000 O   0  0  0  0  0  0  0  0  0  0  0  0
    9.6996   -4.0000    0.0000 C   0  0  0  0  0  0  0  0  0  0  0  0
   11.0852   -4.8000    0.0000 H   0  0  0  0  0  0  0  0  0  0  0  0
    9.6996   -5.6000    0.0000 H   0  0  0  0  0  0  0  0  0  0  0  0
   11.0852   -3.2000    0.0000 H   0  0  0  0  0  0  0  0  0  0  0  0
    9.6996   -0.8000    0.0000 N   0  0  0  0  0  0  0  0  0  0  0  0
    9.6996    0.8000    0.0000 C   0  0  0  0  0  0  0  0  0  0  0  0
   11.0852    1.6000    0.0000 C   0  0  0  0  0  0  0  0  0  0  0  0
   12.4708    2.4000    0.0000 H   0  0  0  0  0  0  0  0  0  0  0  0
   12.4708    0.8000    0.0000 H   0  0  0  0  0  0  0  0  0  0  0  0
   11.0852    3.2000    0.0000 H   0  0  0  0  0  0  0  0  0  0  0  0
    8.3138    1.6000    0.0000 N   0  0  0  0  0  0  0  0  0  0  0  0
    5.5426    3.2000    0.0000 C   0  0  0  0  0  0  0  0  0  0  0  0
    5.5426    4.8000    0.0000 H   0  0  0  0  0  0  0  0  0  0  0  0
    6.9282    4.0000    0.0000 H   0  0  0  0  0  0  0  0  0  0  0  0
    4.1570    4.0000    0.0000 H   0  0  0  0  0  0  0  0  0  0  0  0
    4.1570   -0.8000    0.0000 O   0  0  0  0  0  0  0  0  0  0  0  0
    2.1856   -0.5856    0.0000 O   0  0  0  0  0  0  0  0  0  0  0  0
    0.5857    2.1856    0.0000 O   0  0  0  0  0  0  0  0  0  0  0  0
   -1.3855    0.8000    0.0000 C   0  0  0  0  0  0  0  0  0  0  0  0
   -1.3855    2.4000    0.0000 C   0  0  0  0  0  0  0  0  0  0  0  0
   -2.7713    3.2000    0.0000 O   0  0  0  0  0  0  0  0  0  0  0  0
   -2.7713    4.8000    0.0000 C   0  0  0  0  0  0  0  0  0  0  0  0
   -2.7713    6.4000    0.0000 H   0  0  0  0  0  0  0  0  0  0  0  0
   -4.1569    5.6000    0.0000 H   0  0  0  0  0  0  0  0  0  0  0  0
   -1.3858    5.6000    0.0000 H   0  0  0  0  0  0  0  0  0  0  0  0
    0.0001    3.2000    0.0000 O   0  0  0  0  0  0  0  0  0  0  0  0
   -2.7713    0.0000    0.0000 C   0  0  0  0  0  0  0  0  0  0  0  0
   -4.1569    0.8000    0.0000 H   0  0  0  0  0  0  0  0  0  0  0  0
   -2.7713   -1.6000    0.0000 C   0  0  0  0  0  0  0  0  0  0  0  0
   -4.1569   -2.4000    0.0000 H   0  0  0  0  0  0  0  0  0  0  0  0
   -1.3855   -2.4000    0.0000 C   0  0  0  0  0  0  0  0  0  0  0  0
   -1.3855   -4.0000    0.0000 H   0  0  0  0  0  0  0  0  0  0  0  0
    0.0001   -1.6000    0.0000 C   0  0  0  0  0  0  0  0  0  0  0  0
    1.3856   -2.4000    0.0000 H   0  0  0  0  0  0  0  0  0  0  0  0
  1  2  1  0  0  0  0
  2  3  1  0  0  0  0
  3  4  1  0  0  0  0
  3  5  1  0  0  0  0
  5  6  1  0  0  0  0
  6  7  1  0  0  0  0
  7  8  1  0  0  0  0
  8  9  2  0  0  0  0
  9 10  1  0  0  0  0
 10 11  1  0  0  0  0
 11 12  1  0  0  0  0
 11 13  1  0  0  0  0
 11 14  1  0  0  0  0
  9 15  1  0  0  0  0
 15 16  2  0  0  0  0
 16 17  1  0  0  0  0
 17 18  1  0  0  0  0
 17 19  1  0  0  0  0
 17 20  1  0  0  0  0
 16 21  1  0  0  0  0
 21  7  2  0  0  0  0
  6 22  1  0  0  0  0
 22 23  1  0  0  0  0
 22 24  1  0  0  0  0
 22 25  1  0  0  0  0
  5 26  2  0  0  0  0
  2 27  2  0  0  0  0
  2 28  2  0  0  0  0
  1 29  1  0  0  0  0
 29 30  1  0  0  0  0
 30 31  1  0  0  0  0
 31 32  1  0  0  0  0
 32 33  1  0  0  0  0
 32 34  1  0  0  0  0
 32 35  1  0  0  0  0
 30 36  2  0  0  0  0
 29 37  2  0  0  0  0
 37 38  1  0  0  0  0
 37 39  1  0  0  0  0
 39 40  1  0  0  0  0
 39 41  2  0  0  0  0
 41 42  1  0  0  0  0
 41 43  1  0  0  0  0
 43  1  2  0  0  0  0
 43 44  1  0  0  0  0
M  END
> <ChemID>
100763

> <source_casrn>
101200-48-0

> <CAS>
101200-48-0

> <SMILES>
Cc1[n]c([n]c([n]1)OC)N(C)C(=O)NS(=O)(=O)c1ccccc1C(=O)OC

> <NAME>
Tribenuron-methyl

> <preferred_name>
Tribenuron-methyl

> <iupac>
methyl 2-{[(4-methoxy-6-methyl-1,3,5-triazin-2-yl)(methyl)carbamoyl]sulfamoyl}benzoate

> <MPID>
100006

> <dsstox_substance_id>
DTXSID8024101

> <Canonical_QSARr>
Cc1[n]c([n]c([n]1)OC)N(C)C(=O)NS(=O)(=O)c1ccccc1C(=O)OC

> <InChI_Code_QSARr>
InChI=1S/C15H17N5O6S/c1-9-16-13(18-14(17-9)26-4)20(2)15(22)19-27(23,24)11-8-6-5-7-10(11)12(21)25-3/h5-8H,1-4H3,(H,19,22)

> <InChI Key_QSARr>
VLCQZHSMCYCDJL-UHFFFAOYSA-N

> <LogKOC>
1.72

$$$$
100768
  -INDIGO-08031722282D

 32 33  0  0  0  0  0  0  0  0999 V2000
    2.4000    1.3857    0.0000 O   0  0  0  0  0  0  0  0  0  0  0  0
    3.2000    2.7712    0.0000 H   0  0  0  0  0  0  0  0  0  0  0  0
    0.8000    1.3857    0.0000 C   0  0  0  0  0  0  0  0  0  0  0  0
    0.0000    0.0001    0.0000 C   0  0  0  0  0  0  0  0  0  0  0  0
   -1.6000    0.0001    0.0000 C   0  0  0  0  0  0  0  0  0  0  0  0
   -2.4000    1.3857    0.0000 S   0  0  0  0  0  0  0  0  0  0  0  0
   -4.0000    1.3857    0.0000 C   0  0  0  0  0  0  0  0  0  0  0  0
   -4.8000    2.7712    0.0000 N   0  0  0  0  0  0  0  0  0  0  0  0
   -6.4000    2.7712    0.0000 C   0  0  0  0  0  0  0  0  0  0  0  0
   -7.2000    4.1569    0.0000 O   0  0  0  0  0  0  0  0  0  0  0  0
   -6.4000    5.5425    0.0000 C   0  0  0  0  0  0  0  0  0  0  0  0
   -7.2000    6.9282    0.0000 H   0  0  0  0  0  0  0  0  0  0  0  0
   -5.6000    6.9282    0.0000 H   0  0  0  0  0  0  0  0  0  0  0  0
   -4.8000    5.5425    0.0000 H   0  0  0  0  0  0  0  0  0  0  0  0
   -7.2000    1.3856    0.0000 C   0  0  0  0  0  0  0  0  0  0  0  0
   -8.8000    1.3856    0.0000 H   0  0  0  0  0  0  0  0  0  0  0  0
   -6.4000    0.0001    0.0000 C   0  0  0  0  0  0  0  0  0  0  0  0
   -7.2000   -1.3856    0.0000 O   0  0  0  0  0  0  0  0  0  0  0  0
   -8.8000   -1.3856    0.0000 C   0  0  0  0  0  0  0  0  0  0  0  0
   -9.6000   -2.7713    0.0000 H   0  0  0  0  0  0  0  0  0  0  0  0
  -10.4000   -1.3856    0.0000 H   0  0  0  0  0  0  0  0  0  0  0  0
   -8.0000   -2.7713    0.0000 H   0  0  0  0  0  0  0  0  0  0  0  0
   -4.8000    0.0001    0.0000 N   0  0  0  0  0  0  0  0  0  0  0  0
   -2.4000   -1.3856    0.0000 C   0  0  0  0  0  0  0  0  0  0  0  0
   -4.0000   -1.3856    0.0000 H   0  0  0  0  0  0  0  0  0  0  0  0
   -1.6000   -2.7713    0.0000 C   0  0  0  0  0  0  0  0  0  0  0  0
   -2.4000   -4.1569    0.0000 H   0  0  0  0  0  0  0  0  0  0  0  0
    0.0000   -2.7713    0.0000 C   0  0  0  0  0  0  0  0  0  0  0  0
    0.8000   -4.1569    0.0000 H   0  0  0  0  0  0  0  0  0  0  0  0
    0.8000   -1.3856    0.0000 C   0  0  0  0  0  0  0  0  0  0  0  0
    2.4000   -1.3856    0.0000 Cl  0  0  0  0  0  0  0  0  0  0  0  0
    0.0000    2.7712    0.0000 O   0  0  0  0  0  0  0  0  0  0  0  0
  1  2  1  0  0  0  0
  1  3  1  0  0  0  0
  3  4  1  0  0  0  0
  4  5  1  0  0  0  0
  5  6  1  0  0  0  0
  6  7  1  0  0  0  0
  7  8  1  0  0  0  0
  8  9  2  0  0  0  0
  9 10  1  0  0  0  0
 10 11  1  0  0  0  0
 11 12  1  0  0  0  0
 11 13  1  0  0  0  0
 11 14  1  0  0  0  0
  9 15  1  0  0  0  0
 15 16  1  0  0  0  0
 15 17  2  0  0  0  0
 17 18  1  0  0  0  0
 18 19  1  0  0  0  0
 19 20  1  0  0  0  0
 19 21  1  0  0  0  0
 19 22  1  0  0  0  0
 17 23  1  0  0  0  0
 23  7  2  0  0  0  0
  5 24  2  0  0  0  0
 24 25  1  0  0  0  0
 24 26  1  0  0  0  0
 26 27  1  0  0  0  0
 26 28  2  0  0  0  0
 28 29  1  0  0  0  0
 28 30  1  0  0  0  0
 30  4  2  0  0  0  0
 30 31  1  0  0  0  0
  3 32  2  0  0  0  0
M  END
> <ChemID>
100768

> <source_casrn>
123343-16-8

> <CAS>
123343-16-8

> <SMILES>
[Na]OC(=O)c1c(Cl)cccc1Sc2nc(OC)cc(OC)n2

> <NAME>
Pyrithiobac-sodium salt

> <preferred_name>
Pyrithiobac-sodium

> <iupac>
sodium 2-chloro-6-[(4,6-dimethoxypyrimidin-2-yl)sulfanyl]benzoate

> <MPID>
100011

> <dsstox_substance_id>
DTXSID8032673

> <Canonical_QSARr>
COc1cc([n]c([n]1)Sc1cccc(Cl)c1C(O)=O)OC

> <InChI_Code_QSARr>
InChI=1S/C13H11ClN2O4S/c1-19-9-6-10(20-2)16-13(15-9)21-8-5-3-4-7(14)11(8)12(17)18/h3-6H,1-2H3,(H,17,18)

> <InChI Key_QSARr>
QEGVVEOAVNHRAA-UHFFFAOYSA-N

> <LogKOC>
1.15

$$$$
100769
  -INDIGO-08031722282D

 52 53  0  0  0  0  0  0  0  0999 V2000
    1.3857    2.4000    0.0000 C   0  0  0  0  0  0  0  0  0  0  0  0
    2.7713    1.6000    0.0000 O   0  0  0  0  0  0  0  0  0  0  0  0
   -0.0001    1.6000    0.0000 C   0  0  0  0  0  0  0  0  0  0  0  0
   -0.0001    0.0000    0.0000 C   0  0  0  0  0  0  0  0  0  0  0  0
    1.3857   -0.8000    0.0000 S   0  0  0  0  0  0  0  0  0  0  0  0
    2.1856    0.5856    0.0000 O   0  0  0  0  0  0  0  0  0  0  0  0
    0.5856   -2.1856    0.0000 O   0  0  0  0  0  0  0  0  0  0  0  0
    2.7713   -1.6000    0.0000 N   0  0  0  0  0  0  0  0  0  0  0  0
    2.7713   -3.2000    0.0000 H   0  0  0  0  0  0  0  0  0  0  0  0
    4.1569   -0.8000    0.0000 C   0  0  0  0  0  0  0  0  0  0  0  0
    4.1569    0.8000    0.0000 O   0  0  0  0  0  0  0  0  0  0  0  0
    5.5425   -1.6000    0.0000 N   0  0  0  0  0  0  0  0  0  0  0  0
    5.5425   -3.2000    0.0000 H   0  0  0  0  0  0  0  0  0  0  0  0
    6.9281   -0.8000    0.0000 C   0  0  0  0  0  0  0  0  0  0  0  0
    6.9281    0.8000    0.0000 N   0  0  0  0  0  0  0  0  0  0  0  0
    8.3137    1.6000    0.0000 C   0  0  0  0  0  0  0  0  0  0  0  0
    8.3137    3.2000    0.0000 O   0  0  0  0  0  0  0  0  0  0  0  0
    9.6996    4.0000    0.0000 C   0  0  0  0  0  0  0  0  0  0  0  0
   10.6735    2.7307    0.0000 H   0  0  0  0  0  0  0  0  0  0  0  0
   11.2859    3.7911    0.0000 H   0  0  0  0  0  0  0  0  0  0  0  0
    9.6996    5.6000    0.0000 C   0  0  0  0  0  0  0  0  0  0  0  0
    9.6996    7.2000    0.0000 F   0  0  0  0  0  0  0  0  0  0  0  0
   11.0852    6.4000    0.0000 F   0  0  0  0  0  0  0  0  0  0  0  0
    8.3137    6.4000    0.0000 F   0  0  0  0  0  0  0  0  0  0  0  0
    9.6996    0.8000    0.0000 N   0  0  0  0  0  0  0  0  0  0  0  0
    9.6996   -0.8000    0.0000 C   0  0  0  0  0  0  0  0  0  0  0  0
   11.0852   -1.6000    0.0000 N   0  0  0  0  0  0  0  0  0  0  0  0
   12.4708   -0.8000    0.0000 C   0  0  0  0  0  0  0  0  0  0  0  0
   13.8564    0.0000    0.0000 H   0  0  0  0  0  0  0  0  0  0  0  0
   13.8564   -1.6000    0.0000 H   0  0  0  0  0  0  0  0  0  0  0  0
   12.4708    0.8000    0.0000 H   0  0  0  0  0  0  0  0  0  0  0  0
   11.0852   -3.2000    0.0000 C   0  0  0  0  0  0  0  0  0  0  0  0
   11.0852   -4.8000    0.0000 H   0  0  0  0  0  0  0  0  0  0  0  0
   12.4708   -4.0000    0.0000 H   0  0  0  0  0  0  0  0  0  0  0  0
    9.6996   -4.0000    0.0000 H   0  0  0  0  0  0  0  0  0  0  0  0
    8.3137   -1.6000    0.0000 N   0  0  0  0  0  0  0  0  0  0  0  0
   -1.3857   -0.8000    0.0000 C   0  0  0  0  0  0  0  0  0  0  0  0
   -1.3857   -2.4000    0.0000 C   0  0  0  0  0  0  0  0  0  0  0  0
   -1.3857   -4.0000    0.0000 H   0  0  0  0  0  0  0  0  0  0  0  0
   -2.7713   -3.2000    0.0000 H   0  0  0  0  0  0  0  0  0  0  0  0
   -0.0001   -3.2000    0.0000 H   0  0  0  0  0  0  0  0  0  0  0  0
   -2.7713    0.0000    0.0000 C   0  0  0  0  0  0  0  0  0  0  0  0
   -4.1569   -0.8000    0.0000 H   0  0  0  0  0  0  0  0  0  0  0  0
   -2.7713    1.6000    0.0000 C   0  0  0  0  0  0  0  0  0  0  0  0
   -4.1569    2.4000    0.0000 H   0  0  0  0  0  0  0  0  0  0  0  0
   -1.3857    2.4000    0.0000 C   0  0  0  0  0  0  0  0  0  0  0  0
   -1.3857    4.0000    0.0000 H   0  0  0  0  0  0  0  0  0  0  0  0
    1.3857    4.0000    0.0000 O   0  0  0  0  0  0  0  0  0  0  0  0
    2.7713    4.8000    0.0000 C   0  0  0  0  0  0  0  0  0  0  0  0
    4.1569    5.6000    0.0000 H   0  0  0  0  0  0  0  0  0  0  0  0
    2.7713    6.4000    0.0000 H   0  0  0  0  0  0  0  0  0  0  0  0
    4.1569    4.0000    0.0000 H   0  0  0  0  0  0  0  0  0  0  0  0
  1  2  2  0  0  0  0
  1  3  1  0  0  0  0
  3  4  1  0  0  0  0
  4  5  1  0  0  0  0
  5  6  2  0  0  0  0
  5  7  2  0  0  0  0
  5  8  1  0  0  0  0
  8  9  1  0  0  0  0
  8 10  1  0  0  0  0
 10 11  2  0  0  0  0
 10 12  1  0  0  0  0
 12 13  1  0  0  0  0
 12 14  1  0  0  0  0
 14 15  1  0  0  0  0
 15 16  2  0  0  0  0
 16 17  1  0  0  0  0
 17 18  1  0  0  0  0
 18 19  1  0  0  0  0
 18 20  1  0  0  0  0
 18 21  1  0  0  0  0
 21 22  1  0  0  0  0
 21 23  1  0  0  0  0
 21 24  1  0  0  0  0
 16 25  1  0  0  0  0
 25 26  2  0  0  0  0
 26 27  1  0  0  0  0
 27 28  1  0  0  0  0
 28 29  1  0  0  0  0
 28 30  1  0  0  0  0
 28 31  1  0  0  0  0
 27 32  1  0  0  0  0
 32 33  1  0  0  0  0
 32 34  1  0  0  0  0
 32 35  1  0  0  0  0
 26 36  1  0  0  0  0
 36 14  2  0  0  0  0
  4 37  2  0  0  0  0
 37 38  1  0  0  0  0
 38 39  1  0  0  0  0
 38 40  1  0  0  0  0
 38 41  1  0  0  0  0
 37 42  1  0  0  0  0
 42 43  1  0  0  0  0
 42 44  2  0  0  0  0
 44 45  1  0  0  0  0
 44 46  1  0  0  0  0
 46  3  2  0  0  0  0
 46 47  1  0  0  0  0
  1 48  1  0  0  0  0
 48 49  1  0  0  0  0
 49 50  1  0  0  0  0
 49 51  1  0  0  0  0
 49 52  1  0  0  0  0
M  END
> <ChemID>
100769

> <source_casrn>
126535-15-7

> <CAS>
126535-15-7

> <SMILES>
COC(=O)c1cccc(C)c1S(=O)(=O)NC(=O)Nc2nc(N(C)C)nc(OCC(F)(F)F)n2

> <NAME>
Benzoic acid, 2-(((((4-(dimethylamino)-6-(2,2,2-

> <preferred_name>
Triflusulfuron-methyl

> <iupac>
methyl 2-({[4-(dimethylamino)-6-(2,2,2-trifluoroethoxy)-1,3,5-triazin-2-yl]carbamoyl}sulfamoyl)-3-methylbenzoate

> <MPID>
100012

> <dsstox_substance_id>
DTXSID2032502

> <Canonical_QSARr>
Cc1cccc(c1S(=O)(=O)NC(=O)Nc1[n]c([n]c([n]1)OCC(F)(F)F)N(C)C)C(=O)OC

> <InChI_Code_QSARr>
InChI=1S/C17H19F3N6O6S/c1-9-6-5-7-10(12(27)31-4)11(9)33(29,30)25-15(28)22-13-21-14(26(2)3)24-16(23-13)32-8-17(18,19)20/h5-7H,8H2,1-4H3,(H2,21,22,23,24,25,28)

> <InChI Key_QSARr>
IMEVJVISCHQJRM-UHFFFAOYSA-N

> <LogKOC>
1.84

$$$$
100774
  -INDIGO-08031722282D

 14 15  0  0  0  0  0  0  0  0999 V2000
   -0.2706    2.5746    0.0000 N   0  0  0  0  0  0  0  0  0  0  0  0
   -1.7323    1.9239    0.0000 N   0  0  0  0  0  0  0  0  0  0  0  0
   -1.5651    0.3327    0.0000 N   0  0  0  0  0  0  0  0  0  0  0  0
   -2.7541   -0.7380    0.0000 H   0  0  0  0  0  0  0  0  0  0  0  0
    0.0000   -0.0000    0.0000 C   0  0  0  0  0  0  0  0  0  0  0  0
    0.8000    1.3856    0.0000 C   0  0  0  0  0  0  0  0  0  0  0  0
    2.4000    1.3856    0.0000 C   0  0  0  0  0  0  0  0  0  0  0  0
    3.2000   -0.0000    0.0000 C   0  0  0  0  0  0  0  0  0  0  0  0
    4.8000   -0.0000    0.0000 H   0  0  0  0  0  0  0  0  0  0  0  0
    2.4000   -1.3856    0.0000 C   0  0  0  0  0  0  0  0  0  0  0  0
    3.2000   -2.7713    0.0000 H   0  0  0  0  0  0  0  0  0  0  0  0
    0.8000   -1.3856    0.0000 C   0  0  0  0  0  0  0  0  0  0  0  0
    0.0000   -2.7713    0.0000 H   0  0  0  0  0  0  0  0  0  0  0  0
    3.2000    2.7713    0.0000 Cl  0  0  0  0  0  0  0  0  0  0  0  0
  1  2  2  0  0  0  0
  2  3  1  0  0  0  0
  3  4  1  0  0  0  0
  3  5  1  0  0  0  0
  5  6  1  0  0  0  0
  6  1  1  0  0  0  0
  6  7  2  0  0  0  0
  7  8  1  0  0  0  0
  8  9  1  0  0  0  0
  8 10  2  0  0  0  0
 10 11  1  0  0  0  0
 10 12  1  0  0  0  0
 12  5  2  0  0  0  0
 12 13  1  0  0  0  0
  7 14  1  0  0  0  0
M  END
> <ChemID>
100774

> <source_casrn>
KOC000-00-4

> <CAS>
NOCAS_878862

> <SMILES>
c1cc(Cl)c2nnnc2c1

> <NAME>
4-CHLOROBENZOTRIAZOLE

> <preferred_name>


> <iupac>


> <MPID>
100016

> <dsstox_substance_id>
DTXSID00878862

> <Canonical_QSARr>
Clc1cccc2[nH][n][n]c21

> <InChI_Code_QSARr>
InChI=1S/C6H4ClN3/c7-4-2-1-3-5-6(4)9-10-8-5/h1-3H,(H,8,9,10)

> <InChI Key_QSARr>
NGKNMHFWZMHABQ-UHFFFAOYSA-N

> <LogKOC>
1.98

$$$$
